/*---------------------------------------------------------------------------*\
  =========                 |
  \\      /  F ield         | OpenFOAM: The Open Source CFD Toolbox
   \\    /   O peration     | Website:  https://openfoam.org
    \\  /    A nd           | Version:  8
     \\/     M anipulation  |
\*---------------------------------------------------------------------------*/
Build  : 8-1c9b5879390b
Exec   : buoyantSimpleFoam
Date   : Jan 27 2025
Time   : 14:32:53
Host   : "658dd9edf29b"
PID    : 693
I/O    : uncollated
Case   : /home/openfoam/run/180bentPipe/Re100/q-1000
nProcs : 1
sigFpe : Enabling floating point exception trapping (FOAM_SIGFPE).
fileModificationChecking : Monitoring run-time modified files using timeStampMaster (fileModificationSkew 10)
allowSystemOperations : Allowing user-supplied system call operations

// * * * * * * * * * * * * * * * * * * * * * * * * * * * * * * * * * * * * * //
Create time

Create mesh for time = 0


SIMPLE: Convergence criteria found
        p_rgh: tolerance 0.01
        U: tolerance 0.0001
        e: tolerance 0.01
        "(k|epsilon|omega)": tolerance 0.001

Reading thermophysical properties

Selecting thermodynamics package 
{
    type            heRhoThermo;
    mixture         pureMixture;
    transport       const;
    thermo          eConst;
    equationOfState Boussinesq;
    specie          specie;
    energy          sensibleInternalEnergy;
}

Reading field U

Reading/calculating face flux field phi

Creating turbulence model

Selecting turbulence model type RAS
Selecting RAS turbulence model kEpsilon
RAS
{
    RASModel        kEpsilon;
    turbulence      on;
    printCoeffs     on;
    Cmu             0.09;
    C1              1.44;
    C2              1.92;
    C3              0;
    sigmak          1;
    sigmaEps        1.3;
}

Creating thermophysical transport model

Selecting thermophysical transport type RAS
Selecting default RAS thermophysical transport model eddyDiffusivity

Reading g

Reading hRef
Calculating field g.h


Reading pRef
Reading field p_rgh

--> FOAM Warning : 
    From function const Foam::HashTable<Foam::List<int>, Foam::word>& Foam::polyBoundaryMesh::groupPatchIDs() const
    in file meshes/polyMesh/polyBoundaryMesh/polyBoundaryMesh.C at line 473
    Removing patchGroup 'wall' which clashes with patch 0 of the same name.
No MRF models present

Radiation model not active: radiationProperties not found
Selecting radiationModel none
No finite volume options present

Starting time loop

Time = 1

DILUPBiCGStab:  Solving for Ux, Initial residual = 1, Final residual = 0.0205485, No Iterations 1
DILUPBiCGStab:  Solving for Uy, Initial residual = 1, Final residual = 0.0105549, No Iterations 1
DILUPBiCGStab:  Solving for Uz, Initial residual = 0.999996, Final residual = 0.0612754, No Iterations 1
DILUPBiCGStab:  Solving for e, Initial residual = 1, Final residual = 0.000909519, No Iterations 1
DICPCG:  Solving for p_rgh, Initial residual = 0.966103, Final residual = 0.00730596, No Iterations 195
time step continuity errors : sum local = 20.8025, global = 0.0333278, cumulative = 0.0333278
DILUPBiCGStab:  Solving for epsilon, Initial residual = 0, Final residual = 0, No Iterations 0
DILUPBiCGStab:  Solving for k, Initial residual = 1, Final residual = 0.03558, No Iterations 1
ExecutionTime = 0.25 s  ClockTime = 0 s

Time = 2

DILUPBiCGStab:  Solving for Ux, Initial residual = 0.941612, Final residual = 0.0586147, No Iterations 1
DILUPBiCGStab:  Solving for Uy, Initial residual = 0.989691, Final residual = 0.017253, No Iterations 1
DILUPBiCGStab:  Solving for Uz, Initial residual = 0.648002, Final residual = 0.0232839, No Iterations 1
DILUPBiCGStab:  Solving for e, Initial residual = 0.170875, Final residual = 0.00164864, No Iterations 1
DICPCG:  Solving for p_rgh, Initial residual = 0.197953, Final residual = 0.00190673, No Iterations 176
time step continuity errors : sum local = 350.519, global = -4.55767, cumulative = -4.52434
DILUPBiCGStab:  Solving for epsilon, Initial residual = 0, Final residual = 0, No Iterations 0
DILUPBiCGStab:  Solving for k, Initial residual = 0.986745, Final residual = 0.0127763, No Iterations 1
ExecutionTime = 0.31 s  ClockTime = 0 s

Time = 3

DILUPBiCGStab:  Solving for Ux, Initial residual = 0.232646, Final residual = 0.00851416, No Iterations 1
DILUPBiCGStab:  Solving for Uy, Initial residual = 0.107052, Final residual = 0.00298382, No Iterations 1
DILUPBiCGStab:  Solving for Uz, Initial residual = 0.500717, Final residual = 0.0158765, No Iterations 1
DILUPBiCGStab:  Solving for e, Initial residual = 0.158885, Final residual = 0.00359389, No Iterations 1
DICPCG:  Solving for p_rgh, Initial residual = 0.920411, Final residual = 0.00709727, No Iterations 207
time step continuity errors : sum local = 135.751, global = 0.0523697, cumulative = -4.47197
DILUPBiCGStab:  Solving for epsilon, Initial residual = 0, Final residual = 0, No Iterations 0
DILUPBiCGStab:  Solving for k, Initial residual = 0.240162, Final residual = 0.0118716, No Iterations 1
ExecutionTime = 0.37 s  ClockTime = 0 s

Time = 4

DILUPBiCGStab:  Solving for Ux, Initial residual = 0.238731, Final residual = 0.0108261, No Iterations 1
DILUPBiCGStab:  Solving for Uy, Initial residual = 0.205585, Final residual = 0.0109992, No Iterations 1
DILUPBiCGStab:  Solving for Uz, Initial residual = 0.514837, Final residual = 0.00797809, No Iterations 1
DILUPBiCGStab:  Solving for e, Initial residual = 0.118327, Final residual = 0.00209238, No Iterations 1
DICPCG:  Solving for p_rgh, Initial residual = 0.723668, Final residual = 0.00531954, No Iterations 217
time step continuity errors : sum local = 90.5088, global = 0.0287514, cumulative = -4.44322
DILUPBiCGStab:  Solving for epsilon, Initial residual = 0, Final residual = 0, No Iterations 0
DILUPBiCGStab:  Solving for k, Initial residual = 0.177903, Final residual = 0.0116449, No Iterations 1
ExecutionTime = 0.43 s  ClockTime = 0 s

Time = 5

DILUPBiCGStab:  Solving for Ux, Initial residual = 0.334823, Final residual = 0.0278321, No Iterations 1
DILUPBiCGStab:  Solving for Uy, Initial residual = 0.434034, Final residual = 0.0399908, No Iterations 1
DILUPBiCGStab:  Solving for Uz, Initial residual = 0.420094, Final residual = 0.0156088, No Iterations 1
DILUPBiCGStab:  Solving for e, Initial residual = 0.0997015, Final residual = 0.0013739, No Iterations 1
DICPCG:  Solving for p_rgh, Initial residual = 0.632442, Final residual = 0.00583547, No Iterations 215
time step continuity errors : sum local = 194.48, global = -0.0958262, cumulative = -4.53904
DILUPBiCGStab:  Solving for epsilon, Initial residual = 0, Final residual = 0, No Iterations 0
DILUPBiCGStab:  Solving for k, Initial residual = 0.139082, Final residual = 0.00898268, No Iterations 1
ExecutionTime = 0.49 s  ClockTime = 0 s

Time = 6

DILUPBiCGStab:  Solving for Ux, Initial residual = 0.229889, Final residual = 0.0197025, No Iterations 1
DILUPBiCGStab:  Solving for Uy, Initial residual = 0.307721, Final residual = 0.0024237, No Iterations 1
DILUPBiCGStab:  Solving for Uz, Initial residual = 0.338075, Final residual = 0.0142929, No Iterations 1
DILUPBiCGStab:  Solving for e, Initial residual = 0.0838298, Final residual = 0.0010377, No Iterations 1
DICPCG:  Solving for p_rgh, Initial residual = 0.853344, Final residual = 0.00829134, No Iterations 213
time step continuity errors : sum local = 330.66, global = 0.452146, cumulative = -4.0869
DILUPBiCGStab:  Solving for epsilon, Initial residual = 0, Final residual = 0, No Iterations 0
DILUPBiCGStab:  Solving for k, Initial residual = 0.120264, Final residual = 0.00792227, No Iterations 1
ExecutionTime = 0.56 s  ClockTime = 0 s

Time = 7

DILUPBiCGStab:  Solving for Ux, Initial residual = 0.151429, Final residual = 0.0093662, No Iterations 1
DILUPBiCGStab:  Solving for Uy, Initial residual = 0.17772, Final residual = 0.0132171, No Iterations 1
DILUPBiCGStab:  Solving for Uz, Initial residual = 0.371532, Final residual = 0.0228791, No Iterations 1
DILUPBiCGStab:  Solving for e, Initial residual = 0.0678025, Final residual = 0.000906862, No Iterations 1
DICPCG:  Solving for p_rgh, Initial residual = 0.580482, Final residual = 0.00483523, No Iterations 216
time step continuity errors : sum local = 189.22, global = -0.140301, cumulative = -4.2272
DILUPBiCGStab:  Solving for epsilon, Initial residual = 0, Final residual = 0, No Iterations 0
DILUPBiCGStab:  Solving for k, Initial residual = 0.116021, Final residual = 0.00726933, No Iterations 1
ExecutionTime = 0.62 s  ClockTime = 0 s

Time = 8

DILUPBiCGStab:  Solving for Ux, Initial residual = 0.208875, Final residual = 0.0152261, No Iterations 1
DILUPBiCGStab:  Solving for Uy, Initial residual = 0.261329, Final residual = 0.0195714, No Iterations 1
DILUPBiCGStab:  Solving for Uz, Initial residual = 0.369628, Final residual = 0.0184201, No Iterations 1
DILUPBiCGStab:  Solving for e, Initial residual = 0.0503871, Final residual = 0.000723117, No Iterations 1
DICPCG:  Solving for p_rgh, Initial residual = 0.447455, Final residual = 0.00388998, No Iterations 220
time step continuity errors : sum local = 159.354, global = -0.211296, cumulative = -4.43849
DILUPBiCGStab:  Solving for epsilon, Initial residual = 0, Final residual = 0, No Iterations 0
DILUPBiCGStab:  Solving for k, Initial residual = 0.0828247, Final residual = 0.00583921, No Iterations 1
ExecutionTime = 0.68 s  ClockTime = 0 s

Time = 9

DILUPBiCGStab:  Solving for Ux, Initial residual = 0.225692, Final residual = 0.00265472, No Iterations 1
DILUPBiCGStab:  Solving for Uy, Initial residual = 0.293632, Final residual = 0.0288524, No Iterations 1
DILUPBiCGStab:  Solving for Uz, Initial residual = 0.267951, Final residual = 0.0144424, No Iterations 1
DILUPBiCGStab:  Solving for e, Initial residual = 0.0450496, Final residual = 0.000550121, No Iterations 1
DICPCG:  Solving for p_rgh, Initial residual = 0.533989, Final residual = 0.00442651, No Iterations 217
time step continuity errors : sum local = 232.339, global = 0.206148, cumulative = -4.23235
DILUPBiCGStab:  Solving for epsilon, Initial residual = 0, Final residual = 0, No Iterations 0
DILUPBiCGStab:  Solving for k, Initial residual = 0.0676575, Final residual = 0.00510641, No Iterations 1
ExecutionTime = 0.74 s  ClockTime = 0 s

Time = 10

DILUPBiCGStab:  Solving for Ux, Initial residual = 0.114628, Final residual = 0.00731014, No Iterations 1
DILUPBiCGStab:  Solving for Uy, Initial residual = 0.166335, Final residual = 0.0108439, No Iterations 1
DILUPBiCGStab:  Solving for Uz, Initial residual = 0.238655, Final residual = 0.011179, No Iterations 1
DILUPBiCGStab:  Solving for e, Initial residual = 0.039332, Final residual = 0.000425099, No Iterations 1
DICPCG:  Solving for p_rgh, Initial residual = 0.628636, Final residual = 0.00544595, No Iterations 212
time step continuity errors : sum local = 207.259, global = -0.174033, cumulative = -4.40638
DILUPBiCGStab:  Solving for epsilon, Initial residual = 0, Final residual = 0, No Iterations 0
DILUPBiCGStab:  Solving for k, Initial residual = 0.0627129, Final residual = 0.00484715, No Iterations 1
ExecutionTime = 0.8 s  ClockTime = 0 s

Time = 11

DILUPBiCGStab:  Solving for Ux, Initial residual = 0.155147, Final residual = 0.00191159, No Iterations 1
DILUPBiCGStab:  Solving for Uy, Initial residual = 0.20391, Final residual = 0.0168823, No Iterations 1
DILUPBiCGStab:  Solving for Uz, Initial residual = 0.237291, Final residual = 0.0115207, No Iterations 1
DILUPBiCGStab:  Solving for e, Initial residual = 0.0341217, Final residual = 0.000386045, No Iterations 1
DICPCG:  Solving for p_rgh, Initial residual = 0.685957, Final residual = 0.00509001, No Iterations 215
time step continuity errors : sum local = 133.015, global = 0.423335, cumulative = -3.98304
DILUPBiCGStab:  Solving for epsilon, Initial residual = 0, Final residual = 0, No Iterations 0
DILUPBiCGStab:  Solving for k, Initial residual = 0.0565551, Final residual = 0.00423281, No Iterations 1
ExecutionTime = 0.86 s  ClockTime = 1 s

Time = 12

DILUPBiCGStab:  Solving for Ux, Initial residual = 0.173721, Final residual = 0.00222323, No Iterations 1
DILUPBiCGStab:  Solving for Uy, Initial residual = 0.234202, Final residual = 0.0222776, No Iterations 1
DILUPBiCGStab:  Solving for Uz, Initial residual = 0.204055, Final residual = 0.00931994, No Iterations 1
DILUPBiCGStab:  Solving for e, Initial residual = 0.0310488, Final residual = 0.00043602, No Iterations 1
DICPCG:  Solving for p_rgh, Initial residual = 0.675306, Final residual = 0.00668997, No Iterations 217
time step continuity errors : sum local = 193.265, global = 0.116498, cumulative = -3.86655
DILUPBiCGStab:  Solving for epsilon, Initial residual = 0, Final residual = 0, No Iterations 0
DILUPBiCGStab:  Solving for k, Initial residual = 0.0521055, Final residual = 0.00435833, No Iterations 1
ExecutionTime = 0.93 s  ClockTime = 1 s

Time = 13

DILUPBiCGStab:  Solving for Ux, Initial residual = 0.0802682, Final residual = 0.0062542, No Iterations 1
DILUPBiCGStab:  Solving for Uy, Initial residual = 0.145904, Final residual = 0.010828, No Iterations 1
DILUPBiCGStab:  Solving for Uz, Initial residual = 0.194863, Final residual = 0.0120533, No Iterations 1
DILUPBiCGStab:  Solving for e, Initial residual = 0.0282494, Final residual = 0.000386527, No Iterations 1
DICPCG:  Solving for p_rgh, Initial residual = 0.637018, Final residual = 0.00531518, No Iterations 191
time step continuity errors : sum local = 146.512, global = 4.43653, cumulative = 0.569987
DILUPBiCGStab:  Solving for epsilon, Initial residual = 0, Final residual = 0, No Iterations 0
DILUPBiCGStab:  Solving for k, Initial residual = 0.0491985, Final residual = 0.00436002, No Iterations 1
ExecutionTime = 0.98 s  ClockTime = 1 s

Time = 14

DILUPBiCGStab:  Solving for Ux, Initial residual = 0.107811, Final residual = 0.0104886, No Iterations 1
DILUPBiCGStab:  Solving for Uy, Initial residual = 0.154168, Final residual = 0.0131264, No Iterations 1
DILUPBiCGStab:  Solving for Uz, Initial residual = 0.207449, Final residual = 0.0130041, No Iterations 1
DILUPBiCGStab:  Solving for e, Initial residual = 0.0260475, Final residual = 0.000328794, No Iterations 1
DICPCG:  Solving for p_rgh, Initial residual = 0.399513, Final residual = 0.00398683, No Iterations 135
time step continuity errors : sum local = 139.223, global = -14.5681, cumulative = -13.9981
DILUPBiCGStab:  Solving for epsilon, Initial residual = 0, Final residual = 0, No Iterations 0
DILUPBiCGStab:  Solving for k, Initial residual = 0.0433948, Final residual = 0.0040912, No Iterations 1
ExecutionTime = 1.03 s  ClockTime = 1 s

Time = 15

DILUPBiCGStab:  Solving for Ux, Initial residual = 0.111589, Final residual = 0.0109707, No Iterations 1
DILUPBiCGStab:  Solving for Uy, Initial residual = 0.149802, Final residual = 0.0138973, No Iterations 1
DILUPBiCGStab:  Solving for Uz, Initial residual = 0.168068, Final residual = 0.00888576, No Iterations 1
DILUPBiCGStab:  Solving for e, Initial residual = 0.0254417, Final residual = 0.000293491, No Iterations 1
DICPCG:  Solving for p_rgh, Initial residual = 0.409073, Final residual = 0.00348045, No Iterations 214
time step continuity errors : sum local = 120.206, global = 0.00627808, cumulative = -13.9918
DILUPBiCGStab:  Solving for epsilon, Initial residual = 0, Final residual = 0, No Iterations 0
DILUPBiCGStab:  Solving for k, Initial residual = 0.0385396, Final residual = 0.00365041, No Iterations 1
ExecutionTime = 1.09 s  ClockTime = 1 s

Time = 16

DILUPBiCGStab:  Solving for Ux, Initial residual = 0.0548167, Final residual = 0.00318292, No Iterations 1
DILUPBiCGStab:  Solving for Uy, Initial residual = 0.0929327, Final residual = 0.006522, No Iterations 1
DILUPBiCGStab:  Solving for Uz, Initial residual = 0.148928, Final residual = 0.00732803, No Iterations 1
DILUPBiCGStab:  Solving for e, Initial residual = 0.025478, Final residual = 0.000251241, No Iterations 1
DICPCG:  Solving for p_rgh, Initial residual = 0.525591, Final residual = 0.00421501, No Iterations 212
time step continuity errors : sum local = 101.804, global = 0.240112, cumulative = -13.7517
DILUPBiCGStab:  Solving for epsilon, Initial residual = 0, Final residual = 0, No Iterations 0
DILUPBiCGStab:  Solving for k, Initial residual = 0.0364476, Final residual = 0.00334209, No Iterations 1
ExecutionTime = 1.15 s  ClockTime = 1 s

Time = 17

DILUPBiCGStab:  Solving for Ux, Initial residual = 0.0691664, Final residual = 0.00588309, No Iterations 1
DILUPBiCGStab:  Solving for Uy, Initial residual = 0.0963227, Final residual = 0.00767088, No Iterations 1
DILUPBiCGStab:  Solving for Uz, Initial residual = 0.173467, Final residual = 0.0075928, No Iterations 1
DILUPBiCGStab:  Solving for e, Initial residual = 0.02517, Final residual = 0.000248971, No Iterations 1
DICPCG:  Solving for p_rgh, Initial residual = 0.566126, Final residual = 0.00514405, No Iterations 145
time step continuity errors : sum local = 88.8892, global = 13.7127, cumulative = -0.0389822
DILUPBiCGStab:  Solving for epsilon, Initial residual = 0, Final residual = 0, No Iterations 0
DILUPBiCGStab:  Solving for k, Initial residual = 0.0343857, Final residual = 0.00300161, No Iterations 1
ExecutionTime = 1.2 s  ClockTime = 1 s

Time = 18

DILUPBiCGStab:  Solving for Ux, Initial residual = 0.0700274, Final residual = 0.00588231, No Iterations 1
DILUPBiCGStab:  Solving for Uy, Initial residual = 0.0933343, Final residual = 0.00881248, No Iterations 1
DILUPBiCGStab:  Solving for Uz, Initial residual = 0.138553, Final residual = 0.00785571, No Iterations 1
DILUPBiCGStab:  Solving for e, Initial residual = 0.0257995, Final residual = 0.000245307, No Iterations 1
DICPCG:  Solving for p_rgh, Initial residual = 0.598431, Final residual = 0.0058707, No Iterations 214
time step continuity errors : sum local = 99.7623, global = -0.0916319, cumulative = -0.130614
DILUPBiCGStab:  Solving for epsilon, Initial residual = 0, Final residual = 0, No Iterations 0
DILUPBiCGStab:  Solving for k, Initial residual = 0.0327271, Final residual = 0.0027356, No Iterations 1
ExecutionTime = 1.26 s  ClockTime = 1 s

Time = 19

DILUPBiCGStab:  Solving for Ux, Initial residual = 0.04026, Final residual = 0.00207672, No Iterations 1
DILUPBiCGStab:  Solving for Uy, Initial residual = 0.0717185, Final residual = 0.00506997, No Iterations 1
DILUPBiCGStab:  Solving for Uz, Initial residual = 0.123735, Final residual = 0.00749982, No Iterations 1
DILUPBiCGStab:  Solving for e, Initial residual = 0.0264789, Final residual = 0.000245556, No Iterations 1
DICPCG:  Solving for p_rgh, Initial residual = 0.51448, Final residual = 0.00419657, No Iterations 215
time step continuity errors : sum local = 71.617, global = -0.161175, cumulative = -0.291789
DILUPBiCGStab:  Solving for epsilon, Initial residual = 0, Final residual = 0, No Iterations 0
DILUPBiCGStab:  Solving for k, Initial residual = 0.036436, Final residual = 0.00237335, No Iterations 1
ExecutionTime = 1.32 s  ClockTime = 1 s

Time = 20

DILUPBiCGStab:  Solving for Ux, Initial residual = 0.0508397, Final residual = 0.00271026, No Iterations 1
DILUPBiCGStab:  Solving for Uy, Initial residual = 0.0751029, Final residual = 0.00441203, No Iterations 1
DILUPBiCGStab:  Solving for Uz, Initial residual = 0.166978, Final residual = 0.00880316, No Iterations 1
DILUPBiCGStab:  Solving for e, Initial residual = 0.0262704, Final residual = 0.000259369, No Iterations 1
DICPCG:  Solving for p_rgh, Initial residual = 0.398276, Final residual = 0.00389649, No Iterations 133
time step continuity errors : sum local = 69.811, global = -6.81564, cumulative = -7.10743
DILUPBiCGStab:  Solving for epsilon, Initial residual = 0, Final residual = 0, No Iterations 0
DILUPBiCGStab:  Solving for k, Initial residual = 0.0331231, Final residual = 0.00215277, No Iterations 1
ExecutionTime = 1.37 s  ClockTime = 1 s

Time = 21

DILUPBiCGStab:  Solving for Ux, Initial residual = 0.0495794, Final residual = 0.00313393, No Iterations 1
DILUPBiCGStab:  Solving for Uy, Initial residual = 0.0668876, Final residual = 0.00408961, No Iterations 1
DILUPBiCGStab:  Solving for Uz, Initial residual = 0.125903, Final residual = 0.00630106, No Iterations 1
DILUPBiCGStab:  Solving for e, Initial residual = 0.0263011, Final residual = 0.000289352, No Iterations 1
DICPCG:  Solving for p_rgh, Initial residual = 0.387104, Final residual = 0.00272067, No Iterations 218
time step continuity errors : sum local = 46.1587, global = -0.0211706, cumulative = -7.1286
DILUPBiCGStab:  Solving for epsilon, Initial residual = 0, Final residual = 0, No Iterations 0
DILUPBiCGStab:  Solving for k, Initial residual = 0.0294768, Final residual = 0.00201195, No Iterations 1
ExecutionTime = 1.43 s  ClockTime = 1 s

Time = 22

DILUPBiCGStab:  Solving for Ux, Initial residual = 0.0358852, Final residual = 0.00163151, No Iterations 1
DILUPBiCGStab:  Solving for Uy, Initial residual = 0.0530079, Final residual = 0.00289608, No Iterations 1
DILUPBiCGStab:  Solving for Uz, Initial residual = 0.11083, Final residual = 0.00482747, No Iterations 1
DILUPBiCGStab:  Solving for e, Initial residual = 0.0258, Final residual = 0.000324915, No Iterations 1
DICPCG:  Solving for p_rgh, Initial residual = 0.40346, Final residual = 0.00299764, No Iterations 213
time step continuity errors : sum local = 43.8675, global = -0.0379151, cumulative = -7.16652
DILUPBiCGStab:  Solving for epsilon, Initial residual = 0, Final residual = 0, No Iterations 0
DILUPBiCGStab:  Solving for k, Initial residual = 0.027653, Final residual = 0.00180838, No Iterations 1
ExecutionTime = 1.5 s  ClockTime = 1 s

Time = 23

DILUPBiCGStab:  Solving for Ux, Initial residual = 0.0377453, Final residual = 0.00195607, No Iterations 1
DILUPBiCGStab:  Solving for Uy, Initial residual = 0.0507204, Final residual = 0.00299371, No Iterations 1
DILUPBiCGStab:  Solving for Uz, Initial residual = 0.106612, Final residual = 0.00407887, No Iterations 1
DILUPBiCGStab:  Solving for e, Initial residual = 0.0254482, Final residual = 0.000344442, No Iterations 1
DICPCG:  Solving for p_rgh, Initial residual = 0.403467, Final residual = 0.00393767, No Iterations 121
time step continuity errors : sum local = 50.5119, global = 5.83421, cumulative = -1.33231
DILUPBiCGStab:  Solving for epsilon, Initial residual = 0, Final residual = 0, No Iterations 0
DILUPBiCGStab:  Solving for k, Initial residual = 0.0261379, Final residual = 0.0016288, No Iterations 1
ExecutionTime = 1.54 s  ClockTime = 1 s

Time = 24

DILUPBiCGStab:  Solving for Ux, Initial residual = 0.0360939, Final residual = 0.00195504, No Iterations 1
DILUPBiCGStab:  Solving for Uy, Initial residual = 0.0513754, Final residual = 0.0031154, No Iterations 1
DILUPBiCGStab:  Solving for Uz, Initial residual = 0.0981434, Final residual = 0.00453204, No Iterations 1
DILUPBiCGStab:  Solving for e, Initial residual = 0.0252483, Final residual = 0.00038464, No Iterations 1
DICPCG:  Solving for p_rgh, Initial residual = 0.398552, Final residual = 0.00394287, No Iterations 105
time step continuity errors : sum local = 49.8078, global = -6.27403, cumulative = -7.60635
DILUPBiCGStab:  Solving for epsilon, Initial residual = 0, Final residual = 0, No Iterations 0
DILUPBiCGStab:  Solving for k, Initial residual = 0.025402, Final residual = 0.00146145, No Iterations 1
ExecutionTime = 1.58 s  ClockTime = 1 s

Time = 25

DILUPBiCGStab:  Solving for Ux, Initial residual = 0.0312144, Final residual = 0.00144754, No Iterations 1
DILUPBiCGStab:  Solving for Uy, Initial residual = 0.0504762, Final residual = 0.00299738, No Iterations 1
DILUPBiCGStab:  Solving for Uz, Initial residual = 0.112561, Final residual = 0.00521615, No Iterations 1
DILUPBiCGStab:  Solving for e, Initial residual = 0.024989, Final residual = 0.000432255, No Iterations 1
DICPCG:  Solving for p_rgh, Initial residual = 0.394466, Final residual = 0.00393179, No Iterations 210
time step continuity errors : sum local = 46.4088, global = -0.0228382, cumulative = -7.62918
DILUPBiCGStab:  Solving for epsilon, Initial residual = 0, Final residual = 0, No Iterations 0
DILUPBiCGStab:  Solving for k, Initial residual = 0.0242505, Final residual = 0.0013058, No Iterations 1
ExecutionTime = 1.64 s  ClockTime = 1 s

Time = 26

DILUPBiCGStab:  Solving for Ux, Initial residual = 0.0319796, Final residual = 0.00153412, No Iterations 1
DILUPBiCGStab:  Solving for Uy, Initial residual = 0.0481571, Final residual = 0.00276072, No Iterations 1
DILUPBiCGStab:  Solving for Uz, Initial residual = 0.101251, Final residual = 0.00566793, No Iterations 1
DILUPBiCGStab:  Solving for e, Initial residual = 0.0251754, Final residual = 0.000485864, No Iterations 1
DICPCG:  Solving for p_rgh, Initial residual = 0.332512, Final residual = 0.00330243, No Iterations 123
time step continuity errors : sum local = 42.1282, global = -7.88733, cumulative = -15.5165
DILUPBiCGStab:  Solving for epsilon, Initial residual = 0, Final residual = 0, No Iterations 0
DILUPBiCGStab:  Solving for k, Initial residual = 0.0232416, Final residual = 0.00117, No Iterations 1
ExecutionTime = 1.69 s  ClockTime = 1 s

Time = 27

DILUPBiCGStab:  Solving for Ux, Initial residual = 0.0310519, Final residual = 0.00166221, No Iterations 1
DILUPBiCGStab:  Solving for Uy, Initial residual = 0.0454609, Final residual = 0.00256985, No Iterations 1
DILUPBiCGStab:  Solving for Uz, Initial residual = 0.0918582, Final residual = 0.00433765, No Iterations 1
DILUPBiCGStab:  Solving for e, Initial residual = 0.0253444, Final residual = 0.000523889, No Iterations 1
DICPCG:  Solving for p_rgh, Initial residual = 0.329324, Final residual = 0.00299052, No Iterations 148
time step continuity errors : sum local = 35.0214, global = -3.64237, cumulative = -19.1589
DILUPBiCGStab:  Solving for epsilon, Initial residual = 0, Final residual = 0, No Iterations 0
DILUPBiCGStab:  Solving for k, Initial residual = 0.0216366, Final residual = 0.0011024, No Iterations 1
ExecutionTime = 1.74 s  ClockTime = 1 s

Time = 28

DILUPBiCGStab:  Solving for Ux, Initial residual = 0.0290136, Final residual = 0.00159934, No Iterations 1
DILUPBiCGStab:  Solving for Uy, Initial residual = 0.0419209, Final residual = 0.00221915, No Iterations 1
DILUPBiCGStab:  Solving for Uz, Initial residual = 0.0793533, Final residual = 0.0038747, No Iterations 1
DILUPBiCGStab:  Solving for e, Initial residual = 0.0252434, Final residual = 0.000558918, No Iterations 1
DICPCG:  Solving for p_rgh, Initial residual = 0.315088, Final residual = 0.00269639, No Iterations 148
time step continuity errors : sum local = 30.4551, global = -3.88005, cumulative = -23.0389
DILUPBiCGStab:  Solving for epsilon, Initial residual = 0, Final residual = 0, No Iterations 0
DILUPBiCGStab:  Solving for k, Initial residual = 0.0201721, Final residual = 0.0010644, No Iterations 1
ExecutionTime = 1.79 s  ClockTime = 1 s

Time = 29

DILUPBiCGStab:  Solving for Ux, Initial residual = 0.0286838, Final residual = 0.00168137, No Iterations 1
DILUPBiCGStab:  Solving for Uy, Initial residual = 0.0404746, Final residual = 0.00221247, No Iterations 1
DILUPBiCGStab:  Solving for Uz, Initial residual = 0.0748221, Final residual = 0.00373383, No Iterations 1
DILUPBiCGStab:  Solving for e, Initial residual = 0.0247454, Final residual = 0.000621713, No Iterations 1
DICPCG:  Solving for p_rgh, Initial residual = 0.294833, Final residual = 0.00270311, No Iterations 208
time step continuity errors : sum local = 28.775, global = -0.0253616, cumulative = -23.0643
DILUPBiCGStab:  Solving for epsilon, Initial residual = 0, Final residual = 0, No Iterations 0
DILUPBiCGStab:  Solving for k, Initial residual = 0.0190515, Final residual = 0.000927645, No Iterations 1
ExecutionTime = 1.85 s  ClockTime = 2 s

Time = 30

DILUPBiCGStab:  Solving for Ux, Initial residual = 0.0279456, Final residual = 0.00150925, No Iterations 1
DILUPBiCGStab:  Solving for Uy, Initial residual = 0.039232, Final residual = 0.00209549, No Iterations 1
DILUPBiCGStab:  Solving for Uz, Initial residual = 0.07431, Final residual = 0.00374224, No Iterations 1
DILUPBiCGStab:  Solving for e, Initial residual = 0.0238509, Final residual = 0.000673794, No Iterations 1
DICPCG:  Solving for p_rgh, Initial residual = 0.269494, Final residual = 0.00266038, No Iterations 142
time step continuity errors : sum local = 27.9937, global = -6.95173, cumulative = -30.016
DILUPBiCGStab:  Solving for epsilon, Initial residual = 0, Final residual = 0, No Iterations 0
DILUPBiCGStab:  Solving for k, Initial residual = 0.0181989, Final residual = 0.00083965, No Iterations 1
ExecutionTime = 1.9 s  ClockTime = 2 s

Time = 31

DILUPBiCGStab:  Solving for Ux, Initial residual = 0.0271044, Final residual = 0.00150324, No Iterations 1
DILUPBiCGStab:  Solving for Uy, Initial residual = 0.0377375, Final residual = 0.00210131, No Iterations 1
DILUPBiCGStab:  Solving for Uz, Initial residual = 0.0815826, Final residual = 0.00323983, No Iterations 1
DILUPBiCGStab:  Solving for e, Initial residual = 0.0230299, Final residual = 0.000719413, No Iterations 1
DICPCG:  Solving for p_rgh, Initial residual = 0.242595, Final residual = 0.00238523, No Iterations 205
time step continuity errors : sum local = 25.9405, global = -0.00297198, cumulative = -30.019
DILUPBiCGStab:  Solving for epsilon, Initial residual = 0, Final residual = 0, No Iterations 0
DILUPBiCGStab:  Solving for k, Initial residual = 0.0170462, Final residual = 0.000783203, No Iterations 1
ExecutionTime = 1.96 s  ClockTime = 2 s

Time = 32

DILUPBiCGStab:  Solving for Ux, Initial residual = 0.0264135, Final residual = 0.00157533, No Iterations 1
DILUPBiCGStab:  Solving for Uy, Initial residual = 0.0363939, Final residual = 0.00200478, No Iterations 1
DILUPBiCGStab:  Solving for Uz, Initial residual = 0.0746871, Final residual = 0.00376962, No Iterations 1
DILUPBiCGStab:  Solving for e, Initial residual = 0.0223853, Final residual = 0.000742239, No Iterations 1
DICPCG:  Solving for p_rgh, Initial residual = 0.199611, Final residual = 0.00174372, No Iterations 209
time step continuity errors : sum local = 21.0133, global = -0.0246733, cumulative = -30.0437
DILUPBiCGStab:  Solving for epsilon, Initial residual = 0, Final residual = 0, No Iterations 0
DILUPBiCGStab:  Solving for k, Initial residual = 0.0159574, Final residual = 0.000688596, No Iterations 1
ExecutionTime = 2.02 s  ClockTime = 2 s

Time = 33

DILUPBiCGStab:  Solving for Ux, Initial residual = 0.0254464, Final residual = 0.00146659, No Iterations 1
DILUPBiCGStab:  Solving for Uy, Initial residual = 0.0348337, Final residual = 0.00178258, No Iterations 1
DILUPBiCGStab:  Solving for Uz, Initial residual = 0.0660144, Final residual = 0.00349658, No Iterations 1
DILUPBiCGStab:  Solving for e, Initial residual = 0.0219852, Final residual = 0.000718568, No Iterations 1
DICPCG:  Solving for p_rgh, Initial residual = 0.181044, Final residual = 0.00166003, No Iterations 153
time step continuity errors : sum local = 21.9426, global = -2.30189, cumulative = -32.3456
DILUPBiCGStab:  Solving for epsilon, Initial residual = 0, Final residual = 0, No Iterations 0
DILUPBiCGStab:  Solving for k, Initial residual = 0.0149754, Final residual = 0.000621197, No Iterations 1
ExecutionTime = 2.07 s  ClockTime = 2 s

Time = 34

DILUPBiCGStab:  Solving for Ux, Initial residual = 0.0241976, Final residual = 0.00136921, No Iterations 1
DILUPBiCGStab:  Solving for Uy, Initial residual = 0.0310866, Final residual = 0.00164679, No Iterations 1
DILUPBiCGStab:  Solving for Uz, Initial residual = 0.0667101, Final residual = 0.00319241, No Iterations 1
DILUPBiCGStab:  Solving for e, Initial residual = 0.0214623, Final residual = 0.000671392, No Iterations 1
DICPCG:  Solving for p_rgh, Initial residual = 0.164929, Final residual = 0.00149577, No Iterations 175
time step continuity errors : sum local = 19.0773, global = -5.83602, cumulative = -38.1816
DILUPBiCGStab:  Solving for epsilon, Initial residual = 0, Final residual = 0, No Iterations 0
DILUPBiCGStab:  Solving for k, Initial residual = 0.0138355, Final residual = 0.000638555, No Iterations 1
ExecutionTime = 2.13 s  ClockTime = 2 s

Time = 35

DILUPBiCGStab:  Solving for Ux, Initial residual = 0.0227221, Final residual = 0.00120817, No Iterations 1
DILUPBiCGStab:  Solving for Uy, Initial residual = 0.0310049, Final residual = 0.00146963, No Iterations 1
DILUPBiCGStab:  Solving for Uz, Initial residual = 0.0638584, Final residual = 0.00293323, No Iterations 1
DILUPBiCGStab:  Solving for e, Initial residual = 0.0211634, Final residual = 0.000615309, No Iterations 1
DICPCG:  Solving for p_rgh, Initial residual = 0.16559, Final residual = 0.00143007, No Iterations 209
time step continuity errors : sum local = 16.8921, global = -0.00426802, cumulative = -38.1858
DILUPBiCGStab:  Solving for epsilon, Initial residual = 0, Final residual = 0, No Iterations 0
DILUPBiCGStab:  Solving for k, Initial residual = 0.0126839, Final residual = 0.000652653, No Iterations 1
ExecutionTime = 2.19 s  ClockTime = 2 s

Time = 36

DILUPBiCGStab:  Solving for Ux, Initial residual = 0.0197355, Final residual = 0.00082783, No Iterations 1
DILUPBiCGStab:  Solving for Uy, Initial residual = 0.0297466, Final residual = 0.00128215, No Iterations 1
DILUPBiCGStab:  Solving for Uz, Initial residual = 0.0582522, Final residual = 0.00287573, No Iterations 1
DILUPBiCGStab:  Solving for e, Initial residual = 0.0205124, Final residual = 0.000585603, No Iterations 1
DICPCG:  Solving for p_rgh, Initial residual = 0.10169, Final residual = 0.000988388, No Iterations 210
time step continuity errors : sum local = 17.89, global = 0.0250246, cumulative = -38.1608
DILUPBiCGStab:  Solving for epsilon, Initial residual = 0, Final residual = 0, No Iterations 0
DILUPBiCGStab:  Solving for k, Initial residual = 0.0116549, Final residual = 0.00071339, No Iterations 1
ExecutionTime = 2.25 s  ClockTime = 2 s

Time = 37

DILUPBiCGStab:  Solving for Ux, Initial residual = 0.01761, Final residual = 0.000586368, No Iterations 1
DILUPBiCGStab:  Solving for Uy, Initial residual = 0.0289486, Final residual = 0.00115022, No Iterations 1
DILUPBiCGStab:  Solving for Uz, Initial residual = 0.0523772, Final residual = 0.00281664, No Iterations 1
DILUPBiCGStab:  Solving for e, Initial residual = 0.0199561, Final residual = 0.000565618, No Iterations 1
DICPCG:  Solving for p_rgh, Initial residual = 0.0963009, Final residual = 0.000739948, No Iterations 211
time step continuity errors : sum local = 13.1378, global = 0.0153921, cumulative = -38.1454
DILUPBiCGStab:  Solving for epsilon, Initial residual = 0, Final residual = 0, No Iterations 0
DILUPBiCGStab:  Solving for k, Initial residual = 0.010947, Final residual = 0.000749077, No Iterations 1
ExecutionTime = 2.31 s  ClockTime = 2 s

Time = 38

DILUPBiCGStab:  Solving for Ux, Initial residual = 0.0168425, Final residual = 0.000544438, No Iterations 1
DILUPBiCGStab:  Solving for Uy, Initial residual = 0.0284567, Final residual = 0.00114732, No Iterations 1
DILUPBiCGStab:  Solving for Uz, Initial residual = 0.0488446, Final residual = 0.00265262, No Iterations 1
DILUPBiCGStab:  Solving for e, Initial residual = 0.0196696, Final residual = 0.00054634, No Iterations 1
DICPCG:  Solving for p_rgh, Initial residual = 0.130587, Final residual = 0.00124487, No Iterations 158
time step continuity errors : sum local = 14.5422, global = -2.19096, cumulative = -40.3364
DILUPBiCGStab:  Solving for epsilon, Initial residual = 0, Final residual = 0, No Iterations 0
DILUPBiCGStab:  Solving for k, Initial residual = 0.0103159, Final residual = 0.00075324, No Iterations 1
ExecutionTime = 2.37 s  ClockTime = 2 s

Time = 39

DILUPBiCGStab:  Solving for Ux, Initial residual = 0.0165818, Final residual = 0.000601338, No Iterations 1
DILUPBiCGStab:  Solving for Uy, Initial residual = 0.0282006, Final residual = 0.001308, No Iterations 1
DILUPBiCGStab:  Solving for Uz, Initial residual = 0.0519483, Final residual = 0.00258057, No Iterations 1
DILUPBiCGStab:  Solving for e, Initial residual = 0.0189181, Final residual = 0.000548013, No Iterations 1
DICPCG:  Solving for p_rgh, Initial residual = 0.10793, Final residual = 0.00106583, No Iterations 158
time step continuity errors : sum local = 13.2695, global = -3.2643, cumulative = -43.6007
DILUPBiCGStab:  Solving for epsilon, Initial residual = 0, Final residual = 0, No Iterations 0
DILUPBiCGStab:  Solving for k, Initial residual = 0.00978588, Final residual = 0.000728128, No Iterations 1
ExecutionTime = 2.42 s  ClockTime = 2 s

Time = 40

DILUPBiCGStab:  Solving for Ux, Initial residual = 0.0165715, Final residual = 0.000650258, No Iterations 1
DILUPBiCGStab:  Solving for Uy, Initial residual = 0.0281762, Final residual = 0.00147683, No Iterations 1
DILUPBiCGStab:  Solving for Uz, Initial residual = 0.0487891, Final residual = 0.00257481, No Iterations 1
DILUPBiCGStab:  Solving for e, Initial residual = 0.0182686, Final residual = 0.000547535, No Iterations 1
DICPCG:  Solving for p_rgh, Initial residual = 0.104553, Final residual = 0.00103911, No Iterations 210
time step continuity errors : sum local = 11.7567, global = -0.00399484, cumulative = -43.6047
DILUPBiCGStab:  Solving for epsilon, Initial residual = 0, Final residual = 0, No Iterations 0
DILUPBiCGStab:  Solving for k, Initial residual = 0.00939373, Final residual = 0.000714601, No Iterations 1
ExecutionTime = 2.48 s  ClockTime = 2 s

Time = 41

DILUPBiCGStab:  Solving for Ux, Initial residual = 0.0158227, Final residual = 0.000645426, No Iterations 1
DILUPBiCGStab:  Solving for Uy, Initial residual = 0.0273243, Final residual = 0.00160783, No Iterations 1
DILUPBiCGStab:  Solving for Uz, Initial residual = 0.0467598, Final residual = 0.00271915, No Iterations 1
DILUPBiCGStab:  Solving for e, Initial residual = 0.0176549, Final residual = 0.000534834, No Iterations 1
DICPCG:  Solving for p_rgh, Initial residual = 0.0900405, Final residual = 0.000721059, No Iterations 207
time step continuity errors : sum local = 8.79497, global = 0.0143937, cumulative = -43.5903
DILUPBiCGStab:  Solving for epsilon, Initial residual = 0, Final residual = 0, No Iterations 0
DILUPBiCGStab:  Solving for k, Initial residual = 0.0091015, Final residual = 0.000698211, No Iterations 1
ExecutionTime = 2.54 s  ClockTime = 2 s

Time = 42

DILUPBiCGStab:  Solving for Ux, Initial residual = 0.0151523, Final residual = 0.000661035, No Iterations 1
DILUPBiCGStab:  Solving for Uy, Initial residual = 0.0266343, Final residual = 0.0017675, No Iterations 1
DILUPBiCGStab:  Solving for Uz, Initial residual = 0.0447153, Final residual = 0.00275193, No Iterations 1
DILUPBiCGStab:  Solving for e, Initial residual = 0.0170921, Final residual = 0.000509397, No Iterations 1
DICPCG:  Solving for p_rgh, Initial residual = 0.0981817, Final residual = 0.000862127, No Iterations 129
time step continuity errors : sum local = 9.57999, global = -1.87937, cumulative = -45.4697
DILUPBiCGStab:  Solving for epsilon, Initial residual = 0, Final residual = 0, No Iterations 0
DILUPBiCGStab:  Solving for k, Initial residual = 0.0087561, Final residual = 0.000680315, No Iterations 1
ExecutionTime = 2.58 s  ClockTime = 2 s

Time = 43

DILUPBiCGStab:  Solving for Ux, Initial residual = 0.0146975, Final residual = 0.000748167, No Iterations 1
DILUPBiCGStab:  Solving for Uy, Initial residual = 0.0248468, Final residual = 0.00199659, No Iterations 1
DILUPBiCGStab:  Solving for Uz, Initial residual = 0.0465713, Final residual = 0.00283025, No Iterations 1
DILUPBiCGStab:  Solving for e, Initial residual = 0.0164855, Final residual = 0.000491122, No Iterations 1
DICPCG:  Solving for p_rgh, Initial residual = 0.0978448, Final residual = 0.000972082, No Iterations 128
time step continuity errors : sum local = 10.563, global = -2.28782, cumulative = -47.7575
DILUPBiCGStab:  Solving for epsilon, Initial residual = 0, Final residual = 0, No Iterations 0
DILUPBiCGStab:  Solving for k, Initial residual = 0.00843886, Final residual = 0.000655603, No Iterations 1
ExecutionTime = 2.63 s  ClockTime = 2 s

Time = 44

DILUPBiCGStab:  Solving for Ux, Initial residual = 0.0143361, Final residual = 0.00083115, No Iterations 1
DILUPBiCGStab:  Solving for Uy, Initial residual = 0.023138, Final residual = 0.00218265, No Iterations 1
DILUPBiCGStab:  Solving for Uz, Initial residual = 0.0460839, Final residual = 0.00290531, No Iterations 1
DILUPBiCGStab:  Solving for e, Initial residual = 0.0157692, Final residual = 0.000467826, No Iterations 1
DICPCG:  Solving for p_rgh, Initial residual = 0.10141, Final residual = 0.000781968, No Iterations 213
time step continuity errors : sum local = 8.34692, global = 0.00422325, cumulative = -47.7533
DILUPBiCGStab:  Solving for epsilon, Initial residual = 0, Final residual = 0, No Iterations 0
DILUPBiCGStab:  Solving for k, Initial residual = 0.00817744, Final residual = 0.000628333, No Iterations 1
ExecutionTime = 2.69 s  ClockTime = 2 s

Time = 45

DILUPBiCGStab:  Solving for Ux, Initial residual = 0.0137842, Final residual = 0.000796607, No Iterations 1
DILUPBiCGStab:  Solving for Uy, Initial residual = 0.0214828, Final residual = 0.00024026, No Iterations 1
DILUPBiCGStab:  Solving for Uz, Initial residual = 0.0473774, Final residual = 0.00290538, No Iterations 1
DILUPBiCGStab:  Solving for e, Initial residual = 0.0149617, Final residual = 0.000445303, No Iterations 1
DICPCG:  Solving for p_rgh, Initial residual = 0.0960332, Final residual = 0.000898676, No Iterations 211
time step continuity errors : sum local = 9.58648, global = 0.00116795, cumulative = -47.7521
DILUPBiCGStab:  Solving for epsilon, Initial residual = 0, Final residual = 0, No Iterations 0
DILUPBiCGStab:  Solving for k, Initial residual = 0.00789429, Final residual = 0.000594745, No Iterations 1
ExecutionTime = 2.75 s  ClockTime = 2 s

Time = 46

DILUPBiCGStab:  Solving for Ux, Initial residual = 0.0130194, Final residual = 0.000746306, No Iterations 1
DILUPBiCGStab:  Solving for Uy, Initial residual = 0.0197746, Final residual = 0.0019757, No Iterations 1
DILUPBiCGStab:  Solving for Uz, Initial residual = 0.0469852, Final residual = 0.0025808, No Iterations 1
DILUPBiCGStab:  Solving for e, Initial residual = 0.0141229, Final residual = 0.000424419, No Iterations 1
DICPCG:  Solving for p_rgh, Initial residual = 0.0901994, Final residual = 0.000893153, No Iterations 60
time step continuity errors : sum local = 9.49621, global = -0.611137, cumulative = -48.3632
DILUPBiCGStab:  Solving for epsilon, Initial residual = 0, Final residual = 0, No Iterations 0
DILUPBiCGStab:  Solving for k, Initial residual = 0.00765638, Final residual = 0.000567792, No Iterations 1
ExecutionTime = 2.78 s  ClockTime = 2 s

Time = 47

DILUPBiCGStab:  Solving for Ux, Initial residual = 0.0123057, Final residual = 0.000759253, No Iterations 1
DILUPBiCGStab:  Solving for Uy, Initial residual = 0.0179742, Final residual = 0.000205789, No Iterations 1
DILUPBiCGStab:  Solving for Uz, Initial residual = 0.0471743, Final residual = 0.00230511, No Iterations 1
DILUPBiCGStab:  Solving for e, Initial residual = 0.0132451, Final residual = 0.000398725, No Iterations 1
DICPCG:  Solving for p_rgh, Initial residual = 0.0921853, Final residual = 0.000907531, No Iterations 123
time step continuity errors : sum local = 9.5386, global = 0.449829, cumulative = -47.9134
DILUPBiCGStab:  Solving for epsilon, Initial residual = 0, Final residual = 0, No Iterations 0
DILUPBiCGStab:  Solving for k, Initial residual = 0.00748389, Final residual = 0.000551959, No Iterations 1
ExecutionTime = 2.83 s  ClockTime = 3 s

Time = 48

DILUPBiCGStab:  Solving for Ux, Initial residual = 0.0118332, Final residual = 0.000735178, No Iterations 1
DILUPBiCGStab:  Solving for Uy, Initial residual = 0.0158996, Final residual = 0.0015835, No Iterations 1
DILUPBiCGStab:  Solving for Uz, Initial residual = 0.0477078, Final residual = 0.0024442, No Iterations 1
DILUPBiCGStab:  Solving for e, Initial residual = 0.012362, Final residual = 0.000370518, No Iterations 1
DICPCG:  Solving for p_rgh, Initial residual = 0.0853367, Final residual = 0.000776318, No Iterations 35
time step continuity errors : sum local = 8.03157, global = 0.483816, cumulative = -47.4296
DILUPBiCGStab:  Solving for epsilon, Initial residual = 0, Final residual = 0, No Iterations 0
DILUPBiCGStab:  Solving for k, Initial residual = 0.00734008, Final residual = 0.000539826, No Iterations 1
ExecutionTime = 2.86 s  ClockTime = 3 s

Time = 49

DILUPBiCGStab:  Solving for Ux, Initial residual = 0.0112699, Final residual = 0.000699809, No Iterations 1
DILUPBiCGStab:  Solving for Uy, Initial residual = 0.0142415, Final residual = 0.00140381, No Iterations 1
DILUPBiCGStab:  Solving for Uz, Initial residual = 0.0493023, Final residual = 0.00260944, No Iterations 1
DILUPBiCGStab:  Solving for e, Initial residual = 0.0115445, Final residual = 0.000339647, No Iterations 1
DICPCG:  Solving for p_rgh, Initial residual = 0.0807682, Final residual = 0.000774646, No Iterations 105
time step continuity errors : sum local = 7.92006, global = 0.756946, cumulative = -46.6726
DILUPBiCGStab:  Solving for epsilon, Initial residual = 0, Final residual = 0, No Iterations 0
DILUPBiCGStab:  Solving for k, Initial residual = 0.00730584, Final residual = 0.000538725, No Iterations 1
ExecutionTime = 2.9 s  ClockTime = 3 s

Time = 50

DILUPBiCGStab:  Solving for Ux, Initial residual = 0.0106661, Final residual = 0.000680111, No Iterations 1
DILUPBiCGStab:  Solving for Uy, Initial residual = 0.012702, Final residual = 0.00120033, No Iterations 1
DILUPBiCGStab:  Solving for Uz, Initial residual = 0.0500392, Final residual = 0.0027833, No Iterations 1
DILUPBiCGStab:  Solving for e, Initial residual = 0.0107472, Final residual = 0.000306168, No Iterations 1
DICPCG:  Solving for p_rgh, Initial residual = 0.0812992, Final residual = 0.000761694, No Iterations 36
time step continuity errors : sum local = 7.70202, global = 0.706114, cumulative = -45.9665
DILUPBiCGStab:  Solving for epsilon, Initial residual = 0, Final residual = 0, No Iterations 0
DILUPBiCGStab:  Solving for k, Initial residual = 0.00726938, Final residual = 0.000538827, No Iterations 1
ExecutionTime = 2.93 s  ClockTime = 3 s

Time = 51

DILUPBiCGStab:  Solving for Ux, Initial residual = 0.0100712, Final residual = 0.000647658, No Iterations 1
DILUPBiCGStab:  Solving for Uy, Initial residual = 0.0116055, Final residual = 0.000989247, No Iterations 1
DILUPBiCGStab:  Solving for Uz, Initial residual = 0.0483192, Final residual = 0.00252859, No Iterations 1
DILUPBiCGStab:  Solving for e, Initial residual = 0.0100629, Final residual = 0.000274543, No Iterations 1
DICPCG:  Solving for p_rgh, Initial residual = 0.0740964, Final residual = 0.000714364, No Iterations 41
time step continuity errors : sum local = 7.14019, global = 1.16267, cumulative = -44.8038
DILUPBiCGStab:  Solving for epsilon, Initial residual = 0, Final residual = 0, No Iterations 0
DILUPBiCGStab:  Solving for k, Initial residual = 0.00723662, Final residual = 0.000541979, No Iterations 1
ExecutionTime = 2.96 s  ClockTime = 3 s

Time = 52

DILUPBiCGStab:  Solving for Ux, Initial residual = 0.0095394, Final residual = 0.000593527, No Iterations 1
DILUPBiCGStab:  Solving for Uy, Initial residual = 0.0110331, Final residual = 0.000821107, No Iterations 1
DILUPBiCGStab:  Solving for Uz, Initial residual = 0.0476811, Final residual = 0.00208895, No Iterations 1
DILUPBiCGStab:  Solving for e, Initial residual = 0.00945576, Final residual = 0.000247757, No Iterations 1
DICPCG:  Solving for p_rgh, Initial residual = 0.0682649, Final residual = 0.000637108, No Iterations 124
time step continuity errors : sum local = 6.30297, global = 1.2666, cumulative = -43.5372
DILUPBiCGStab:  Solving for epsilon, Initial residual = 0, Final residual = 0, No Iterations 0
DILUPBiCGStab:  Solving for k, Initial residual = 0.00723816, Final residual = 0.000551338, No Iterations 1
ExecutionTime = 3 s  ClockTime = 3 s

Time = 53

DILUPBiCGStab:  Solving for Ux, Initial residual = 0.00913085, Final residual = 0.000568596, No Iterations 1
DILUPBiCGStab:  Solving for Uy, Initial residual = 0.0107179, Final residual = 0.000689304, No Iterations 1
DILUPBiCGStab:  Solving for Uz, Initial residual = 0.046034, Final residual = 0.00202946, No Iterations 1
DILUPBiCGStab:  Solving for e, Initial residual = 0.00899067, Final residual = 0.000228912, No Iterations 1
DICPCG:  Solving for p_rgh, Initial residual = 0.0671125, Final residual = 0.000601514, No Iterations 209
time step continuity errors : sum local = 5.88206, global = -0.00346502, cumulative = -43.5407
DILUPBiCGStab:  Solving for epsilon, Initial residual = 0, Final residual = 0, No Iterations 0
DILUPBiCGStab:  Solving for k, Initial residual = 0.00727896, Final residual = 0.000562976, No Iterations 1
ExecutionTime = 3.06 s  ClockTime = 3 s

Time = 54

DILUPBiCGStab:  Solving for Ux, Initial residual = 0.00883025, Final residual = 0.00056477, No Iterations 1
DILUPBiCGStab:  Solving for Uy, Initial residual = 0.0106506, Final residual = 0.000598041, No Iterations 1
DILUPBiCGStab:  Solving for Uz, Initial residual = 0.0452391, Final residual = 0.00185588, No Iterations 1
DILUPBiCGStab:  Solving for e, Initial residual = 0.00858354, Final residual = 0.000215088, No Iterations 1
DICPCG:  Solving for p_rgh, Initial residual = 0.066016, Final residual = 0.000630484, No Iterations 77
time step continuity errors : sum local = 6.07988, global = 1.38547, cumulative = -42.1552
DILUPBiCGStab:  Solving for epsilon, Initial residual = 0, Final residual = 0, No Iterations 0
DILUPBiCGStab:  Solving for k, Initial residual = 0.00733261, Final residual = 0.000573049, No Iterations 1
ExecutionTime = 3.1 s  ClockTime = 3 s

Time = 55

DILUPBiCGStab:  Solving for Ux, Initial residual = 0.00854075, Final residual = 0.000517204, No Iterations 1
DILUPBiCGStab:  Solving for Uy, Initial residual = 0.0109586, Final residual = 0.000609061, No Iterations 1
DILUPBiCGStab:  Solving for Uz, Initial residual = 0.0439134, Final residual = 0.00209183, No Iterations 1
DILUPBiCGStab:  Solving for e, Initial residual = 0.00822977, Final residual = 0.000204547, No Iterations 1
DICPCG:  Solving for p_rgh, Initial residual = 0.0644826, Final residual = 0.000630465, No Iterations 207
time step continuity errors : sum local = 6.03687, global = 0.000477638, cumulative = -42.1548
DILUPBiCGStab:  Solving for epsilon, Initial residual = 0, Final residual = 0, No Iterations 0
DILUPBiCGStab:  Solving for k, Initial residual = 0.00740182, Final residual = 0.000590557, No Iterations 1
ExecutionTime = 3.16 s  ClockTime = 3 s

Time = 56

DILUPBiCGStab:  Solving for Ux, Initial residual = 0.00841506, Final residual = 0.000512386, No Iterations 1
DILUPBiCGStab:  Solving for Uy, Initial residual = 0.0115781, Final residual = 0.000723964, No Iterations 1
DILUPBiCGStab:  Solving for Uz, Initial residual = 0.0433834, Final residual = 0.00209501, No Iterations 1
DILUPBiCGStab:  Solving for e, Initial residual = 0.00792402, Final residual = 0.000198016, No Iterations 1
DICPCG:  Solving for p_rgh, Initial residual = 0.0626318, Final residual = 0.000609856, No Iterations 126
time step continuity errors : sum local = 5.76791, global = 1.14264, cumulative = -41.0121
DILUPBiCGStab:  Solving for epsilon, Initial residual = 0, Final residual = 0, No Iterations 0
DILUPBiCGStab:  Solving for k, Initial residual = 0.0074829, Final residual = 0.000614348, No Iterations 1
ExecutionTime = 3.21 s  ClockTime = 3 s

Time = 57

DILUPBiCGStab:  Solving for Ux, Initial residual = 0.00833902, Final residual = 0.000502523, No Iterations 1
DILUPBiCGStab:  Solving for Uy, Initial residual = 0.0121774, Final residual = 0.000839694, No Iterations 1
DILUPBiCGStab:  Solving for Uz, Initial residual = 0.0424399, Final residual = 0.0024394, No Iterations 1
DILUPBiCGStab:  Solving for e, Initial residual = 0.00765533, Final residual = 0.00019478, No Iterations 1
DICPCG:  Solving for p_rgh, Initial residual = 0.0638401, Final residual = 0.000525809, No Iterations 209
time step continuity errors : sum local = 4.94358, global = -0.00391157, cumulative = -41.016
DILUPBiCGStab:  Solving for epsilon, Initial residual = 0, Final residual = 0, No Iterations 0
DILUPBiCGStab:  Solving for k, Initial residual = 0.00763681, Final residual = 0.000634194, No Iterations 1
ExecutionTime = 3.27 s  ClockTime = 3 s

Time = 58

DILUPBiCGStab:  Solving for Ux, Initial residual = 0.00850369, Final residual = 0.000521763, No Iterations 1
DILUPBiCGStab:  Solving for Uy, Initial residual = 0.0127734, Final residual = 0.000949989, No Iterations 1
DILUPBiCGStab:  Solving for Uz, Initial residual = 0.0426581, Final residual = 0.00223017, No Iterations 1
DILUPBiCGStab:  Solving for e, Initial residual = 0.00741113, Final residual = 0.000194641, No Iterations 1
DICPCG:  Solving for p_rgh, Initial residual = 0.0615877, Final residual = 0.000425185, No Iterations 207
time step continuity errors : sum local = 3.94048, global = -0.00386394, cumulative = -41.0199
DILUPBiCGStab:  Solving for epsilon, Initial residual = 0, Final residual = 0, No Iterations 0
DILUPBiCGStab:  Solving for k, Initial residual = 0.00777354, Final residual = 0.000651447, No Iterations 1
ExecutionTime = 3.32 s  ClockTime = 3 s

Time = 59

DILUPBiCGStab:  Solving for Ux, Initial residual = 0.00879813, Final residual = 0.000545381, No Iterations 1
DILUPBiCGStab:  Solving for Uy, Initial residual = 0.0133085, Final residual = 0.00104185, No Iterations 1
DILUPBiCGStab:  Solving for Uz, Initial residual = 0.04022, Final residual = 0.00216814, No Iterations 1
DILUPBiCGStab:  Solving for e, Initial residual = 0.0072032, Final residual = 0.000195071, No Iterations 1
DICPCG:  Solving for p_rgh, Initial residual = 0.0618168, Final residual = 0.000571632, No Iterations 171
time step continuity errors : sum local = 5.22851, global = 1.31413, cumulative = -39.7058
DILUPBiCGStab:  Solving for epsilon, Initial residual = 0, Final residual = 0, No Iterations 0
DILUPBiCGStab:  Solving for k, Initial residual = 0.007907, Final residual = 0.000675949, No Iterations 1
ExecutionTime = 3.38 s  ClockTime = 3 s

Time = 60

DILUPBiCGStab:  Solving for Ux, Initial residual = 0.00899815, Final residual = 0.000540408, No Iterations 1
DILUPBiCGStab:  Solving for Uy, Initial residual = 0.0135564, Final residual = 0.00113023, No Iterations 1
DILUPBiCGStab:  Solving for Uz, Initial residual = 0.03952, Final residual = 0.00229342, No Iterations 1
DILUPBiCGStab:  Solving for e, Initial residual = 0.00704361, Final residual = 0.000197047, No Iterations 1
DICPCG:  Solving for p_rgh, Initial residual = 0.0626265, Final residual = 0.000497183, No Iterations 208
time step continuity errors : sum local = 4.50767, global = -0.000447175, cumulative = -39.7062
DILUPBiCGStab:  Solving for epsilon, Initial residual = 0, Final residual = 0, No Iterations 0
DILUPBiCGStab:  Solving for k, Initial residual = 0.00808822, Final residual = 0.000698606, No Iterations 1
ExecutionTime = 3.44 s  ClockTime = 3 s

Time = 61

DILUPBiCGStab:  Solving for Ux, Initial residual = 0.00929482, Final residual = 0.00056274, No Iterations 1
DILUPBiCGStab:  Solving for Uy, Initial residual = 0.0138896, Final residual = 0.00124001, No Iterations 1
DILUPBiCGStab:  Solving for Uz, Initial residual = 0.0384063, Final residual = 0.00206513, No Iterations 1
DILUPBiCGStab:  Solving for e, Initial residual = 0.00687438, Final residual = 0.000199865, No Iterations 1
DICPCG:  Solving for p_rgh, Initial residual = 0.0630936, Final residual = 0.0005662, No Iterations 207
time step continuity errors : sum local = 5.05271, global = 0.00125012, cumulative = -39.705
DILUPBiCGStab:  Solving for epsilon, Initial residual = 0, Final residual = 0, No Iterations 0
DILUPBiCGStab:  Solving for k, Initial residual = 0.0082337, Final residual = 0.000713432, No Iterations 1
ExecutionTime = 3.5 s  ClockTime = 3 s

Time = 62

DILUPBiCGStab:  Solving for Ux, Initial residual = 0.00961765, Final residual = 0.000573315, No Iterations 1
DILUPBiCGStab:  Solving for Uy, Initial residual = 0.0141887, Final residual = 0.0013132, No Iterations 1
DILUPBiCGStab:  Solving for Uz, Initial residual = 0.0356198, Final residual = 0.00187076, No Iterations 1
DILUPBiCGStab:  Solving for e, Initial residual = 0.00671626, Final residual = 0.00020154, No Iterations 1
DICPCG:  Solving for p_rgh, Initial residual = 0.0645818, Final residual = 0.000468634, No Iterations 208
time step continuity errors : sum local = 4.11754, global = -0.00265161, cumulative = -39.7076
DILUPBiCGStab:  Solving for epsilon, Initial residual = 0, Final residual = 0, No Iterations 0
DILUPBiCGStab:  Solving for k, Initial residual = 0.00833096, Final residual = 0.000727909, No Iterations 1
ExecutionTime = 3.57 s  ClockTime = 3 s

Time = 63

DILUPBiCGStab:  Solving for Ux, Initial residual = 0.00988978, Final residual = 0.000571926, No Iterations 1
DILUPBiCGStab:  Solving for Uy, Initial residual = 0.0141744, Final residual = 0.0013813, No Iterations 1
DILUPBiCGStab:  Solving for Uz, Initial residual = 0.034185, Final residual = 0.00177784, No Iterations 1
DILUPBiCGStab:  Solving for e, Initial residual = 0.006573, Final residual = 0.000204445, No Iterations 1
DICPCG:  Solving for p_rgh, Initial residual = 0.0665082, Final residual = 0.000663433, No Iterations 172
time step continuity errors : sum local = 5.6812, global = 1.49061, cumulative = -38.217
DILUPBiCGStab:  Solving for epsilon, Initial residual = 0, Final residual = 0, No Iterations 0
DILUPBiCGStab:  Solving for k, Initial residual = 0.00840976, Final residual = 0.000724128, No Iterations 1
ExecutionTime = 3.62 s  ClockTime = 3 s

Time = 64

DILUPBiCGStab:  Solving for Ux, Initial residual = 0.0101255, Final residual = 0.00054785, No Iterations 1
DILUPBiCGStab:  Solving for Uy, Initial residual = 0.0143019, Final residual = 0.00141969, No Iterations 1
DILUPBiCGStab:  Solving for Uz, Initial residual = 0.0364028, Final residual = 0.00191857, No Iterations 1
DILUPBiCGStab:  Solving for e, Initial residual = 0.0064363, Final residual = 0.000204649, No Iterations 1
DICPCG:  Solving for p_rgh, Initial residual = 0.0675032, Final residual = 0.000582261, No Iterations 211
time step continuity errors : sum local = 4.92263, global = 0.000952031, cumulative = -38.2161
DILUPBiCGStab:  Solving for epsilon, Initial residual = 0, Final residual = 0, No Iterations 0
DILUPBiCGStab:  Solving for k, Initial residual = 0.00856736, Final residual = 0.000731003, No Iterations 1
ExecutionTime = 3.68 s  ClockTime = 3 s

Time = 65

DILUPBiCGStab:  Solving for Ux, Initial residual = 0.0103583, Final residual = 0.000564094, No Iterations 1
DILUPBiCGStab:  Solving for Uy, Initial residual = 0.0143929, Final residual = 0.00142374, No Iterations 1
DILUPBiCGStab:  Solving for Uz, Initial residual = 0.038313, Final residual = 0.00185916, No Iterations 1
DILUPBiCGStab:  Solving for e, Initial residual = 0.0063156, Final residual = 0.00020576, No Iterations 1
DICPCG:  Solving for p_rgh, Initial residual = 0.0686511, Final residual = 0.000627019, No Iterations 209
time step continuity errors : sum local = 5.19351, global = -0.00268039, cumulative = -38.2187
DILUPBiCGStab:  Solving for epsilon, Initial residual = 0, Final residual = 0, No Iterations 0
DILUPBiCGStab:  Solving for k, Initial residual = 0.00864432, Final residual = 0.000745898, No Iterations 1
ExecutionTime = 3.74 s  ClockTime = 3 s

Time = 66

DILUPBiCGStab:  Solving for Ux, Initial residual = 0.0105776, Final residual = 0.000582704, No Iterations 1
DILUPBiCGStab:  Solving for Uy, Initial residual = 0.0146065, Final residual = 0.00141888, No Iterations 1
DILUPBiCGStab:  Solving for Uz, Initial residual = 0.0377475, Final residual = 0.00194056, No Iterations 1
DILUPBiCGStab:  Solving for e, Initial residual = 0.00622819, Final residual = 0.000205279, No Iterations 1
DICPCG:  Solving for p_rgh, Initial residual = 0.0684444, Final residual = 0.000655387, No Iterations 208
time step continuity errors : sum local = 5.32319, global = 0.000402199, cumulative = -38.2183
DILUPBiCGStab:  Solving for epsilon, Initial residual = 0, Final residual = 0, No Iterations 0
DILUPBiCGStab:  Solving for k, Initial residual = 0.00873653, Final residual = 0.000761367, No Iterations 1
ExecutionTime = 3.8 s  ClockTime = 3 s

Time = 67

DILUPBiCGStab:  Solving for Ux, Initial residual = 0.0106894, Final residual = 0.000581331, No Iterations 1
DILUPBiCGStab:  Solving for Uy, Initial residual = 0.0148298, Final residual = 0.00142051, No Iterations 1
DILUPBiCGStab:  Solving for Uz, Initial residual = 0.0374277, Final residual = 0.00238409, No Iterations 1
DILUPBiCGStab:  Solving for e, Initial residual = 0.00615857, Final residual = 0.000205147, No Iterations 1
DICPCG:  Solving for p_rgh, Initial residual = 0.0675115, Final residual = 0.000565256, No Iterations 208
time step continuity errors : sum local = 4.51327, global = 0.000215967, cumulative = -38.2181
DILUPBiCGStab:  Solving for epsilon, Initial residual = 0, Final residual = 0, No Iterations 0
DILUPBiCGStab:  Solving for k, Initial residual = 0.00877665, Final residual = 0.000758715, No Iterations 1
ExecutionTime = 3.86 s  ClockTime = 4 s

Time = 68

DILUPBiCGStab:  Solving for Ux, Initial residual = 0.0108674, Final residual = 0.00056742, No Iterations 1
DILUPBiCGStab:  Solving for Uy, Initial residual = 0.0150472, Final residual = 0.00142084, No Iterations 1
DILUPBiCGStab:  Solving for Uz, Initial residual = 0.0372115, Final residual = 0.00290608, No Iterations 1
DILUPBiCGStab:  Solving for e, Initial residual = 0.00608757, Final residual = 0.000198856, No Iterations 1
DICPCG:  Solving for p_rgh, Initial residual = 0.0681149, Final residual = 0.000608779, No Iterations 209
time step continuity errors : sum local = 4.79577, global = 0.000454767, cumulative = -38.2177
DILUPBiCGStab:  Solving for epsilon, Initial residual = 0, Final residual = 0, No Iterations 0
DILUPBiCGStab:  Solving for k, Initial residual = 0.00885221, Final residual = 0.000794709, No Iterations 1
ExecutionTime = 3.92 s  ClockTime = 4 s

Time = 69

DILUPBiCGStab:  Solving for Ux, Initial residual = 0.0109068, Final residual = 0.000559249, No Iterations 1
DILUPBiCGStab:  Solving for Uy, Initial residual = 0.0154932, Final residual = 0.00139969, No Iterations 1
DILUPBiCGStab:  Solving for Uz, Initial residual = 0.0378108, Final residual = 0.00315962, No Iterations 1
DILUPBiCGStab:  Solving for e, Initial residual = 0.00603153, Final residual = 0.000194986, No Iterations 1
DICPCG:  Solving for p_rgh, Initial residual = 0.0689805, Final residual = 0.000501797, No Iterations 209
time step continuity errors : sum local = 3.89827, global = -0.00300057, cumulative = -38.2207
DILUPBiCGStab:  Solving for epsilon, Initial residual = 0, Final residual = 0, No Iterations 0
DILUPBiCGStab:  Solving for k, Initial residual = 0.00895397, Final residual = 0.000787061, No Iterations 1
ExecutionTime = 3.98 s  ClockTime = 4 s

Time = 70

DILUPBiCGStab:  Solving for Ux, Initial residual = 0.0110891, Final residual = 0.000547689, No Iterations 1
DILUPBiCGStab:  Solving for Uy, Initial residual = 0.0162049, Final residual = 0.00137636, No Iterations 1
DILUPBiCGStab:  Solving for Uz, Initial residual = 0.0368199, Final residual = 0.00332933, No Iterations 1
DILUPBiCGStab:  Solving for e, Initial residual = 0.00600529, Final residual = 0.000189981, No Iterations 1
DICPCG:  Solving for p_rgh, Initial residual = 0.0730439, Final residual = 0.000502079, No Iterations 208
time step continuity errors : sum local = 3.84708, global = -0.00100991, cumulative = -38.2217
DILUPBiCGStab:  Solving for epsilon, Initial residual = 0, Final residual = 0, No Iterations 0
DILUPBiCGStab:  Solving for k, Initial residual = 0.00904773, Final residual = 0.000806677, No Iterations 1
ExecutionTime = 4.04 s  ClockTime = 4 s

Time = 71

DILUPBiCGStab:  Solving for Ux, Initial residual = 0.0111808, Final residual = 0.000554816, No Iterations 1
DILUPBiCGStab:  Solving for Uy, Initial residual = 0.0170457, Final residual = 0.00136811, No Iterations 1
DILUPBiCGStab:  Solving for Uz, Initial residual = 0.035321, Final residual = 0.00336488, No Iterations 1
DILUPBiCGStab:  Solving for e, Initial residual = 0.00600502, Final residual = 0.00018552, No Iterations 1
DICPCG:  Solving for p_rgh, Initial residual = 0.0748979, Final residual = 0.000601303, No Iterations 207
time step continuity errors : sum local = 4.53333, global = 0.00181565, cumulative = -38.2199
DILUPBiCGStab:  Solving for epsilon, Initial residual = 0, Final residual = 0, No Iterations 0
DILUPBiCGStab:  Solving for k, Initial residual = 0.00917127, Final residual = 0.000792557, No Iterations 1
ExecutionTime = 4.1 s  ClockTime = 4 s

Time = 72

DILUPBiCGStab:  Solving for Ux, Initial residual = 0.0113762, Final residual = 0.000555436, No Iterations 1
DILUPBiCGStab:  Solving for Uy, Initial residual = 0.0182236, Final residual = 0.00138532, No Iterations 1
DILUPBiCGStab:  Solving for Uz, Initial residual = 0.0341989, Final residual = 0.00335288, No Iterations 1
DILUPBiCGStab:  Solving for e, Initial residual = 0.00604146, Final residual = 0.000178851, No Iterations 1
DICPCG:  Solving for p_rgh, Initial residual = 0.0790731, Final residual = 0.000675532, No Iterations 207
time step continuity errors : sum local = 5.05466, global = 0.00197699, cumulative = -38.2179
DILUPBiCGStab:  Solving for epsilon, Initial residual = 0, Final residual = 0, No Iterations 0
DILUPBiCGStab:  Solving for k, Initial residual = 0.00934083, Final residual = 0.000779541, No Iterations 1
ExecutionTime = 4.16 s  ClockTime = 4 s

Time = 73

DILUPBiCGStab:  Solving for Ux, Initial residual = 0.0113955, Final residual = 0.000543864, No Iterations 1
DILUPBiCGStab:  Solving for Uy, Initial residual = 0.0197391, Final residual = 0.00141686, No Iterations 1
DILUPBiCGStab:  Solving for Uz, Initial residual = 0.0340028, Final residual = 0.0031265, No Iterations 1
DILUPBiCGStab:  Solving for e, Initial residual = 0.00606753, Final residual = 0.000172379, No Iterations 1
DICPCG:  Solving for p_rgh, Initial residual = 0.0818671, Final residual = 0.000774072, No Iterations 207
time step continuity errors : sum local = 5.79749, global = -0.000403734, cumulative = -38.2183
DILUPBiCGStab:  Solving for epsilon, Initial residual = 0, Final residual = 0, No Iterations 0
DILUPBiCGStab:  Solving for k, Initial residual = 0.00966988, Final residual = 0.000753374, No Iterations 1
ExecutionTime = 4.22 s  ClockTime = 4 s

Time = 74

DILUPBiCGStab:  Solving for Ux, Initial residual = 0.0118984, Final residual = 0.000520029, No Iterations 1
DILUPBiCGStab:  Solving for Uy, Initial residual = 0.0220166, Final residual = 0.00145458, No Iterations 1
DILUPBiCGStab:  Solving for Uz, Initial residual = 0.0335019, Final residual = 0.00271079, No Iterations 1
DILUPBiCGStab:  Solving for e, Initial residual = 0.00618161, Final residual = 0.000164034, No Iterations 1
DICPCG:  Solving for p_rgh, Initial residual = 0.0802752, Final residual = 0.000730039, No Iterations 207
time step continuity errors : sum local = 5.59784, global = 0.00165709, cumulative = -38.2166
DILUPBiCGStab:  Solving for epsilon, Initial residual = 0, Final residual = 0, No Iterations 0
DILUPBiCGStab:  Solving for k, Initial residual = 0.0102082, Final residual = 0.000728482, No Iterations 1
ExecutionTime = 4.28 s  ClockTime = 4 s

Time = 75

DILUPBiCGStab:  Solving for Ux, Initial residual = 0.0129745, Final residual = 0.000517434, No Iterations 1
DILUPBiCGStab:  Solving for Uy, Initial residual = 0.0261259, Final residual = 0.00140761, No Iterations 1
DILUPBiCGStab:  Solving for Uz, Initial residual = 0.0308058, Final residual = 0.00249524, No Iterations 1
DILUPBiCGStab:  Solving for e, Initial residual = 0.0063568, Final residual = 0.000154181, No Iterations 1
DICPCG:  Solving for p_rgh, Initial residual = 0.0863246, Final residual = 0.000861418, No Iterations 162
time step continuity errors : sum local = 6.82269, global = 1.43203, cumulative = -36.7846
DILUPBiCGStab:  Solving for epsilon, Initial residual = 0, Final residual = 0, No Iterations 0
DILUPBiCGStab:  Solving for k, Initial residual = 0.0107138, Final residual = 0.000716069, No Iterations 1
ExecutionTime = 4.33 s  ClockTime = 4 s

Time = 76

DILUPBiCGStab:  Solving for Ux, Initial residual = 0.0145957, Final residual = 0.000545246, No Iterations 1
DILUPBiCGStab:  Solving for Uy, Initial residual = 0.0286568, Final residual = 0.00154722, No Iterations 1
DILUPBiCGStab:  Solving for Uz, Initial residual = 0.0311734, Final residual = 0.00235667, No Iterations 1
DILUPBiCGStab:  Solving for e, Initial residual = 0.0066149, Final residual = 0.000141992, No Iterations 1
DICPCG:  Solving for p_rgh, Initial residual = 0.0887262, Final residual = 0.000883684, No Iterations 126
time step continuity errors : sum local = 6.64179, global = 0.620961, cumulative = -36.1636
DILUPBiCGStab:  Solving for epsilon, Initial residual = 0, Final residual = 0, No Iterations 0
DILUPBiCGStab:  Solving for k, Initial residual = 0.0109643, Final residual = 0.000749281, No Iterations 1
ExecutionTime = 4.37 s  ClockTime = 4 s

Time = 77

DILUPBiCGStab:  Solving for Ux, Initial residual = 0.0158956, Final residual = 0.000653004, No Iterations 1
DILUPBiCGStab:  Solving for Uy, Initial residual = 0.0306393, Final residual = 0.0014879, No Iterations 1
DILUPBiCGStab:  Solving for Uz, Initial residual = 0.0286045, Final residual = 0.00220743, No Iterations 1
DILUPBiCGStab:  Solving for e, Initial residual = 0.00665926, Final residual = 0.00013945, No Iterations 1
DICPCG:  Solving for p_rgh, Initial residual = 0.0894999, Final residual = 0.000872429, No Iterations 157
time step continuity errors : sum local = 6.49882, global = -1.02771, cumulative = -37.1914
DILUPBiCGStab:  Solving for epsilon, Initial residual = 0, Final residual = 0, No Iterations 0
DILUPBiCGStab:  Solving for k, Initial residual = 0.0114736, Final residual = 0.000756307, No Iterations 1
ExecutionTime = 4.43 s  ClockTime = 4 s

Time = 78

DILUPBiCGStab:  Solving for Ux, Initial residual = 0.0176292, Final residual = 0.000833558, No Iterations 1
DILUPBiCGStab:  Solving for Uy, Initial residual = 0.0319363, Final residual = 0.0014124, No Iterations 1
DILUPBiCGStab:  Solving for Uz, Initial residual = 0.0294311, Final residual = 0.00211996, No Iterations 1
DILUPBiCGStab:  Solving for e, Initial residual = 0.00680379, Final residual = 0.000136151, No Iterations 1
DICPCG:  Solving for p_rgh, Initial residual = 0.096486, Final residual = 0.000812323, No Iterations 208
time step continuity errors : sum local = 6.10062, global = -0.00173111, cumulative = -37.1931
DILUPBiCGStab:  Solving for epsilon, Initial residual = 0, Final residual = 0, No Iterations 0
DILUPBiCGStab:  Solving for k, Initial residual = 0.0119842, Final residual = 0.000778064, No Iterations 1
ExecutionTime = 4.49 s  ClockTime = 4 s

Time = 79

DILUPBiCGStab:  Solving for Ux, Initial residual = 0.0186862, Final residual = 0.00104943, No Iterations 1
DILUPBiCGStab:  Solving for Uy, Initial residual = 0.0317701, Final residual = 0.00128857, No Iterations 1
DILUPBiCGStab:  Solving for Uz, Initial residual = 0.028676, Final residual = 0.00216372, No Iterations 1
DILUPBiCGStab:  Solving for e, Initial residual = 0.0068252, Final residual = 0.000132748, No Iterations 1
DICPCG:  Solving for p_rgh, Initial residual = 0.0950078, Final residual = 0.000942992, No Iterations 208
time step continuity errors : sum local = 7.33903, global = -0.00133364, cumulative = -37.1944
DILUPBiCGStab:  Solving for epsilon, Initial residual = 0, Final residual = 0, No Iterations 0
DILUPBiCGStab:  Solving for k, Initial residual = 0.0124613, Final residual = 0.000790199, No Iterations 1
ExecutionTime = 4.55 s  ClockTime = 4 s

Time = 80

DILUPBiCGStab:  Solving for Ux, Initial residual = 0.0189668, Final residual = 0.00121324, No Iterations 1
DILUPBiCGStab:  Solving for Uy, Initial residual = 0.0295518, Final residual = 0.00121168, No Iterations 1
DILUPBiCGStab:  Solving for Uz, Initial residual = 0.0285587, Final residual = 0.00218582, No Iterations 1
DILUPBiCGStab:  Solving for e, Initial residual = 0.00686766, Final residual = 0.000128917, No Iterations 1
DICPCG:  Solving for p_rgh, Initial residual = 0.0958028, Final residual = 0.000689838, No Iterations 208
time step continuity errors : sum local = 5.75976, global = 0.00244227, cumulative = -37.192
DILUPBiCGStab:  Solving for epsilon, Initial residual = 0, Final residual = 0, No Iterations 0
DILUPBiCGStab:  Solving for k, Initial residual = 0.0128385, Final residual = 0.000805984, No Iterations 1
ExecutionTime = 4.61 s  ClockTime = 4 s

Time = 81

DILUPBiCGStab:  Solving for Ux, Initial residual = 0.0185641, Final residual = 0.00126943, No Iterations 1
DILUPBiCGStab:  Solving for Uy, Initial residual = 0.0258658, Final residual = 0.00123546, No Iterations 1
DILUPBiCGStab:  Solving for Uz, Initial residual = 0.0286774, Final residual = 0.00220539, No Iterations 1
DILUPBiCGStab:  Solving for e, Initial residual = 0.00695922, Final residual = 0.000128618, No Iterations 1
DICPCG:  Solving for p_rgh, Initial residual = 0.0857807, Final residual = 0.000840689, No Iterations 143
time step continuity errors : sum local = 7.86764, global = -0.514611, cumulative = -37.7066
DILUPBiCGStab:  Solving for epsilon, Initial residual = 0, Final residual = 0, No Iterations 0
DILUPBiCGStab:  Solving for k, Initial residual = 0.0130172, Final residual = 0.000821569, No Iterations 1
ExecutionTime = 4.66 s  ClockTime = 4 s

Time = 82

DILUPBiCGStab:  Solving for Ux, Initial residual = 0.0173036, Final residual = 0.00120811, No Iterations 1
DILUPBiCGStab:  Solving for Uy, Initial residual = 0.0228909, Final residual = 0.00108037, No Iterations 1
DILUPBiCGStab:  Solving for Uz, Initial residual = 0.0289668, Final residual = 0.00216382, No Iterations 1
DILUPBiCGStab:  Solving for e, Initial residual = 0.0071054, Final residual = 0.000126614, No Iterations 1
DICPCG:  Solving for p_rgh, Initial residual = 0.0834235, Final residual = 0.000820861, No Iterations 54
time step continuity errors : sum local = 6.95975, global = -0.741766, cumulative = -38.4484
DILUPBiCGStab:  Solving for epsilon, Initial residual = 0, Final residual = 0, No Iterations 0
DILUPBiCGStab:  Solving for k, Initial residual = 0.0131804, Final residual = 0.000785105, No Iterations 1
ExecutionTime = 4.69 s  ClockTime = 4 s

Time = 83

DILUPBiCGStab:  Solving for Ux, Initial residual = 0.0154209, Final residual = 0.00103658, No Iterations 1
DILUPBiCGStab:  Solving for Uy, Initial residual = 0.0212313, Final residual = 0.000995239, No Iterations 1
DILUPBiCGStab:  Solving for Uz, Initial residual = 0.0293284, Final residual = 0.00225661, No Iterations 1
DILUPBiCGStab:  Solving for e, Initial residual = 0.00715522, Final residual = 0.000120501, No Iterations 1
DICPCG:  Solving for p_rgh, Initial residual = 0.0809711, Final residual = 0.00080782, No Iterations 47
time step continuity errors : sum local = 6.46761, global = 0.654075, cumulative = -37.7943
DILUPBiCGStab:  Solving for epsilon, Initial residual = 0, Final residual = 0, No Iterations 0
DILUPBiCGStab:  Solving for k, Initial residual = 0.0126099, Final residual = 0.000776577, No Iterations 1
ExecutionTime = 4.72 s  ClockTime = 4 s

Time = 84

DILUPBiCGStab:  Solving for Ux, Initial residual = 0.0137112, Final residual = 0.000837066, No Iterations 1
DILUPBiCGStab:  Solving for Uy, Initial residual = 0.0199922, Final residual = 0.00101831, No Iterations 1
DILUPBiCGStab:  Solving for Uz, Initial residual = 0.0289841, Final residual = 0.00230036, No Iterations 1
DILUPBiCGStab:  Solving for e, Initial residual = 0.00706732, Final residual = 0.000120463, No Iterations 1
DICPCG:  Solving for p_rgh, Initial residual = 0.0761202, Final residual = 0.000711217, No Iterations 50
time step continuity errors : sum local = 5.60329, global = 0.531508, cumulative = -37.2628
DILUPBiCGStab:  Solving for epsilon, Initial residual = 0, Final residual = 0, No Iterations 0
DILUPBiCGStab:  Solving for k, Initial residual = 0.0120388, Final residual = 0.000727014, No Iterations 1
ExecutionTime = 4.75 s  ClockTime = 4 s

Time = 85

DILUPBiCGStab:  Solving for Ux, Initial residual = 0.0120111, Final residual = 0.00064466, No Iterations 1
DILUPBiCGStab:  Solving for Uy, Initial residual = 0.0173759, Final residual = 0.000926369, No Iterations 1
DILUPBiCGStab:  Solving for Uz, Initial residual = 0.0292371, Final residual = 0.00223079, No Iterations 1
DILUPBiCGStab:  Solving for e, Initial residual = 0.00689362, Final residual = 0.000112728, No Iterations 1
DICPCG:  Solving for p_rgh, Initial residual = 0.0765944, Final residual = 0.000742329, No Iterations 142
time step continuity errors : sum local = 5.82299, global = -0.714232, cumulative = -37.977
DILUPBiCGStab:  Solving for epsilon, Initial residual = 0, Final residual = 0, No Iterations 0
DILUPBiCGStab:  Solving for k, Initial residual = 0.0114948, Final residual = 0.000702848, No Iterations 1
ExecutionTime = 4.8 s  ClockTime = 5 s

Time = 86

DILUPBiCGStab:  Solving for Ux, Initial residual = 0.0108983, Final residual = 0.000531913, No Iterations 1
DILUPBiCGStab:  Solving for Uy, Initial residual = 0.0160893, Final residual = 0.000905587, No Iterations 1
DILUPBiCGStab:  Solving for Uz, Initial residual = 0.0287375, Final residual = 0.00215099, No Iterations 1
DILUPBiCGStab:  Solving for e, Initial residual = 0.00674422, Final residual = 0.000108572, No Iterations 1
DICPCG:  Solving for p_rgh, Initial residual = 0.074732, Final residual = 0.000641433, No Iterations 206
time step continuity errors : sum local = 5.00672, global = 0.00527934, cumulative = -37.9717
DILUPBiCGStab:  Solving for epsilon, Initial residual = 0, Final residual = 0, No Iterations 0
DILUPBiCGStab:  Solving for k, Initial residual = 0.0108524, Final residual = 0.000648798, No Iterations 1
ExecutionTime = 4.86 s  ClockTime = 5 s

Time = 87

DILUPBiCGStab:  Solving for Ux, Initial residual = 0.0103532, Final residual = 0.000488096, No Iterations 1
DILUPBiCGStab:  Solving for Uy, Initial residual = 0.0175245, Final residual = 0.000999749, No Iterations 1
DILUPBiCGStab:  Solving for Uz, Initial residual = 0.0285767, Final residual = 0.00205424, No Iterations 1
DILUPBiCGStab:  Solving for e, Initial residual = 0.0065417, Final residual = 0.000100899, No Iterations 1
DICPCG:  Solving for p_rgh, Initial residual = 0.069821, Final residual = 0.000609161, No Iterations 207
time step continuity errors : sum local = 4.78084, global = -0.00720549, cumulative = -37.9789
DILUPBiCGStab:  Solving for epsilon, Initial residual = 0, Final residual = 0, No Iterations 0
DILUPBiCGStab:  Solving for k, Initial residual = 0.0105104, Final residual = 0.000609948, No Iterations 1
ExecutionTime = 4.92 s  ClockTime = 5 s

Time = 88

DILUPBiCGStab:  Solving for Ux, Initial residual = 0.0101381, Final residual = 0.000454297, No Iterations 1
DILUPBiCGStab:  Solving for Uy, Initial residual = 0.0179055, Final residual = 0.000945395, No Iterations 1
DILUPBiCGStab:  Solving for Uz, Initial residual = 0.0270819, Final residual = 0.00195897, No Iterations 1
DILUPBiCGStab:  Solving for e, Initial residual = 0.00646704, Final residual = 9.5883e-05, No Iterations 1
DICPCG:  Solving for p_rgh, Initial residual = 0.0649493, Final residual = 0.000632841, No Iterations 47
time step continuity errors : sum local = 4.96975, global = -0.962364, cumulative = -38.9413
DILUPBiCGStab:  Solving for epsilon, Initial residual = 0, Final residual = 0, No Iterations 0
DILUPBiCGStab:  Solving for k, Initial residual = 0.0104194, Final residual = 0.000592119, No Iterations 1
ExecutionTime = 4.95 s  ClockTime = 5 s

Time = 89

DILUPBiCGStab:  Solving for Ux, Initial residual = 0.0098553, Final residual = 0.000421505, No Iterations 1
[...]
DICPCG:  Solving for p_rgh, Initial residual = 0.0754591, Final residual = 0.000730155, No Iterations 89
time step continuity errors : sum local = 23.8827, global = -4.86872, cumulative = -203.075
DILUPBiCGStab:  Solving for epsilon, Initial residual = 0, Final residual = 0, No Iterations 0
DILUPBiCGStab:  Solving for k, Initial residual = 0.0102321, Final residual = 0.000260953, No Iterations 1
ExecutionTime = 46.36 s  ClockTime = 47 s

Time = 979

DILUPBiCGStab:  Solving for Ux, Initial residual = 0.011515, Final residual = 0.00034861, No Iterations 1
DILUPBiCGStab:  Solving for Uy, Initial residual = 0.0506446, Final residual = 0.0013196, No Iterations 1
DILUPBiCGStab:  Solving for Uz, Initial residual = 0.0178123, Final residual = 0.00157384, No Iterations 1
DILUPBiCGStab:  Solving for e, Initial residual = 0.00129675, Final residual = 2.31374e-05, No Iterations 1
DICPCG:  Solving for p_rgh, Initial residual = 0.0842653, Final residual = 0.000801099, No Iterations 39
time step continuity errors : sum local = 27.0323, global = -3.97836, cumulative = -207.053
DILUPBiCGStab:  Solving for epsilon, Initial residual = 0, Final residual = 0, No Iterations 0
DILUPBiCGStab:  Solving for k, Initial residual = 0.0104615, Final residual = 0.000288071, No Iterations 1
ExecutionTime = 46.39 s  ClockTime = 47 s

Time = 980

DILUPBiCGStab:  Solving for Ux, Initial residual = 0.0116597, Final residual = 0.000417411, No Iterations 1
DILUPBiCGStab:  Solving for Uy, Initial residual = 0.0465653, Final residual = 0.00161713, No Iterations 1
DILUPBiCGStab:  Solving for Uz, Initial residual = 0.0170468, Final residual = 0.00144383, No Iterations 1
DILUPBiCGStab:  Solving for e, Initial residual = 0.00127145, Final residual = 2.49323e-05, No Iterations 1
DICPCG:  Solving for p_rgh, Initial residual = 0.0825947, Final residual = 0.000795983, No Iterations 69
time step continuity errors : sum local = 28.0394, global = -1.61314, cumulative = -208.666
DILUPBiCGStab:  Solving for epsilon, Initial residual = 0, Final residual = 0, No Iterations 0
DILUPBiCGStab:  Solving for k, Initial residual = 0.0104875, Final residual = 0.000303592, No Iterations 1
ExecutionTime = 46.42 s  ClockTime = 47 s

Time = 981

DILUPBiCGStab:  Solving for Ux, Initial residual = 0.0121071, Final residual = 0.000521598, No Iterations 1
DILUPBiCGStab:  Solving for Uy, Initial residual = 0.0413184, Final residual = 0.00188096, No Iterations 1
DILUPBiCGStab:  Solving for Uz, Initial residual = 0.0139459, Final residual = 0.000955054, No Iterations 1
DILUPBiCGStab:  Solving for e, Initial residual = 0.00121358, Final residual = 2.55944e-05, No Iterations 1
DICPCG:  Solving for p_rgh, Initial residual = 0.0832351, Final residual = 0.000816566, No Iterations 35
time step continuity errors : sum local = 27.6199, global = 1.32432, cumulative = -207.342
DILUPBiCGStab:  Solving for epsilon, Initial residual = 0, Final residual = 0, No Iterations 0
DILUPBiCGStab:  Solving for k, Initial residual = 0.0106473, Final residual = 0.000314927, No Iterations 1
ExecutionTime = 46.45 s  ClockTime = 47 s

Time = 982

DILUPBiCGStab:  Solving for Ux, Initial residual = 0.0127432, Final residual = 0.000597475, No Iterations 1
DILUPBiCGStab:  Solving for Uy, Initial residual = 0.0375153, Final residual = 0.0019006, No Iterations 1
DILUPBiCGStab:  Solving for Uz, Initial residual = 0.0134172, Final residual = 0.00103165, No Iterations 1
DILUPBiCGStab:  Solving for e, Initial residual = 0.0012415, Final residual = 2.61989e-05, No Iterations 1
DICPCG:  Solving for p_rgh, Initial residual = 0.0844581, Final residual = 0.000774972, No Iterations 214
time step continuity errors : sum local = 25.398, global = 0.0148995, cumulative = -207.327
DILUPBiCGStab:  Solving for epsilon, Initial residual = 0, Final residual = 0, No Iterations 0
DILUPBiCGStab:  Solving for k, Initial residual = 0.0104872, Final residual = 0.000324056, No Iterations 1
ExecutionTime = 46.52 s  ClockTime = 47 s

Time = 983

DILUPBiCGStab:  Solving for Ux, Initial residual = 0.0125378, Final residual = 0.000615784, No Iterations 1
DILUPBiCGStab:  Solving for Uy, Initial residual = 0.0351434, Final residual = 0.00193292, No Iterations 1
DILUPBiCGStab:  Solving for Uz, Initial residual = 0.0112164, Final residual = 0.000909758, No Iterations 1
DILUPBiCGStab:  Solving for e, Initial residual = 0.00119503, Final residual = 2.51353e-05, No Iterations 1
DICPCG:  Solving for p_rgh, Initial residual = 0.0845064, Final residual = 0.000601822, No Iterations 211
time step continuity errors : sum local = 18.8654, global = -0.0107391, cumulative = -207.338
DILUPBiCGStab:  Solving for epsilon, Initial residual = 0, Final residual = 0, No Iterations 0
DILUPBiCGStab:  Solving for k, Initial residual = 0.0102823, Final residual = 0.000339837, No Iterations 1
ExecutionTime = 46.58 s  ClockTime = 47 s

Time = 984

DILUPBiCGStab:  Solving for Ux, Initial residual = 0.0119357, Final residual = 0.000609964, No Iterations 1
DILUPBiCGStab:  Solving for Uy, Initial residual = 0.0336583, Final residual = 0.00184564, No Iterations 1
DILUPBiCGStab:  Solving for Uz, Initial residual = 0.0101923, Final residual = 0.000847626, No Iterations 1
DILUPBiCGStab:  Solving for e, Initial residual = 0.00117511, Final residual = 2.55545e-05, No Iterations 1
DICPCG:  Solving for p_rgh, Initial residual = 0.0859855, Final residual = 0.000768007, No Iterations 72
time step continuity errors : sum local = 23.2542, global = 4.94185, cumulative = -202.396
DILUPBiCGStab:  Solving for epsilon, Initial residual = 0, Final residual = 0, No Iterations 0
DILUPBiCGStab:  Solving for k, Initial residual = 0.00994905, Final residual = 0.000343935, No Iterations 1
ExecutionTime = 46.62 s  ClockTime = 47 s

Time = 985

DILUPBiCGStab:  Solving for Ux, Initial residual = 0.0119617, Final residual = 0.000643099, No Iterations 1
DILUPBiCGStab:  Solving for Uy, Initial residual = 0.0338223, Final residual = 0.00171826, No Iterations 1
DILUPBiCGStab:  Solving for Uz, Initial residual = 0.00934106, Final residual = 0.000754768, No Iterations 1
DILUPBiCGStab:  Solving for e, Initial residual = 0.00117685, Final residual = 2.65634e-05, No Iterations 1
DICPCG:  Solving for p_rgh, Initial residual = 0.0876295, Final residual = 0.00086393, No Iterations 85
time step continuity errors : sum local = 25.7727, global = 0.0277604, cumulative = -202.368
DILUPBiCGStab:  Solving for epsilon, Initial residual = 0, Final residual = 0, No Iterations 0
DILUPBiCGStab:  Solving for k, Initial residual = 0.00969106, Final residual = 0.000351371, No Iterations 1
ExecutionTime = 46.66 s  ClockTime = 47 s

Time = 986

DILUPBiCGStab:  Solving for Ux, Initial residual = 0.0122133, Final residual = 0.000660572, No Iterations 1
DILUPBiCGStab:  Solving for Uy, Initial residual = 0.0353488, Final residual = 0.00164715, No Iterations 1
DILUPBiCGStab:  Solving for Uz, Initial residual = 0.00939508, Final residual = 0.000655841, No Iterations 1
DILUPBiCGStab:  Solving for e, Initial residual = 0.0011967, Final residual = 2.72076e-05, No Iterations 1
DICPCG:  Solving for p_rgh, Initial residual = 0.0879504, Final residual = 0.000847213, No Iterations 92
time step continuity errors : sum local = 25.1658, global = -4.97239, cumulative = -207.341
DILUPBiCGStab:  Solving for epsilon, Initial residual = 0, Final residual = 0, No Iterations 0
DILUPBiCGStab:  Solving for k, Initial residual = 0.00934811, Final residual = 0.000350351, No Iterations 1
ExecutionTime = 46.7 s  ClockTime = 47 s

Time = 987

DILUPBiCGStab:  Solving for Ux, Initial residual = 0.012187, Final residual = 0.000638946, No Iterations 1
DILUPBiCGStab:  Solving for Uy, Initial residual = 0.0368756, Final residual = 0.00166024, No Iterations 1
DILUPBiCGStab:  Solving for Uz, Initial residual = 0.0161841, Final residual = 0.00161442, No Iterations 1
DILUPBiCGStab:  Solving for e, Initial residual = 0.00122002, Final residual = 2.77699e-05, No Iterations 1
DICPCG:  Solving for p_rgh, Initial residual = 0.0872529, Final residual = 0.000820123, No Iterations 76
time step continuity errors : sum local = 24.3796, global = -10.0618, cumulative = -217.402
DILUPBiCGStab:  Solving for epsilon, Initial residual = 0, Final residual = 0, No Iterations 0
DILUPBiCGStab:  Solving for k, Initial residual = 0.0089594, Final residual = 0.000348149, No Iterations 1
ExecutionTime = 46.74 s  ClockTime = 47 s

Time = 988

DILUPBiCGStab:  Solving for Ux, Initial residual = 0.0115765, Final residual = 0.000564966, No Iterations 1
DILUPBiCGStab:  Solving for Uy, Initial residual = 0.0368602, Final residual = 0.00165813, No Iterations 1
DILUPBiCGStab:  Solving for Uz, Initial residual = 0.010124, Final residual = 0.000136042, No Iterations 1
DILUPBiCGStab:  Solving for e, Initial residual = 0.00121606, Final residual = 2.67525e-05, No Iterations 1
DICPCG:  Solving for p_rgh, Initial residual = 0.0877618, Final residual = 0.000737025, No Iterations 212
time step continuity errors : sum local = 22.3606, global = 0.00690811, cumulative = -217.396
DILUPBiCGStab:  Solving for epsilon, Initial residual = 0, Final residual = 0, No Iterations 0
DILUPBiCGStab:  Solving for k, Initial residual = 0.00828461, Final residual = 0.000306625, No Iterations 1
ExecutionTime = 46.8 s  ClockTime = 47 s

Time = 989

DILUPBiCGStab:  Solving for Ux, Initial residual = 0.0108456, Final residual = 0.000474517, No Iterations 1
DILUPBiCGStab:  Solving for Uy, Initial residual = 0.0362015, Final residual = 0.00164751, No Iterations 1
DILUPBiCGStab:  Solving for Uz, Initial residual = 0.00794624, Final residual = 0.000502235, No Iterations 1
DILUPBiCGStab:  Solving for e, Initial residual = 0.00122817, Final residual = 2.64184e-05, No Iterations 1
DICPCG:  Solving for p_rgh, Initial residual = 0.0933827, Final residual = 0.000899976, No Iterations 46
time step continuity errors : sum local = 31.2701, global = -8.82056, cumulative = -226.216
DILUPBiCGStab:  Solving for epsilon, Initial residual = 0, Final residual = 0, No Iterations 0
DILUPBiCGStab:  Solving for k, Initial residual = 0.00792269, Final residual = 0.000283934, No Iterations 1
ExecutionTime = 46.83 s  ClockTime = 47 s

Time = 990

DILUPBiCGStab:  Solving for Ux, Initial residual = 0.0101361, Final residual = 0.000394347, No Iterations 1
DILUPBiCGStab:  Solving for Uy, Initial residual = 0.0351843, Final residual = 0.00167102, No Iterations 1
DILUPBiCGStab:  Solving for Uz, Initial residual = 0.00661299, Final residual = 0.000469213, No Iterations 1
DILUPBiCGStab:  Solving for e, Initial residual = 0.00118472, Final residual = 2.61405e-05, No Iterations 1
DICPCG:  Solving for p_rgh, Initial residual = 0.0759528, Final residual = 0.00075543, No Iterations 75
time step continuity errors : sum local = 27.4613, global = -8.76034, cumulative = -234.976
DILUPBiCGStab:  Solving for epsilon, Initial residual = 0, Final residual = 0, No Iterations 0
DILUPBiCGStab:  Solving for k, Initial residual = 0.00785064, Final residual = 0.00026453, No Iterations 1
ExecutionTime = 46.86 s  ClockTime = 47 s

Time = 991

DILUPBiCGStab:  Solving for Ux, Initial residual = 0.0101277, Final residual = 0.000374381, No Iterations 1
DILUPBiCGStab:  Solving for Uy, Initial residual = 0.036519, Final residual = 0.00177154, No Iterations 1
DILUPBiCGStab:  Solving for Uz, Initial residual = 0.00586623, Final residual = 0.000458762, No Iterations 1
DILUPBiCGStab:  Solving for e, Initial residual = 0.00120711, Final residual = 2.63023e-05, No Iterations 1
DICPCG:  Solving for p_rgh, Initial residual = 0.0810433, Final residual = 0.000790525, No Iterations 91
time step continuity errors : sum local = 23.6565, global = -1.34443, cumulative = -236.321
DILUPBiCGStab:  Solving for epsilon, Initial residual = 0, Final residual = 0, No Iterations 0
DILUPBiCGStab:  Solving for k, Initial residual = 0.0074976, Final residual = 0.000241561, No Iterations 1
ExecutionTime = 46.9 s  ClockTime = 47 s

Time = 992

DILUPBiCGStab:  Solving for Ux, Initial residual = 0.00995551, Final residual = 0.000379316, No Iterations 1
DILUPBiCGStab:  Solving for Uy, Initial residual = 0.0355333, Final residual = 0.00174659, No Iterations 1
DILUPBiCGStab:  Solving for Uz, Initial residual = 0.00601481, Final residual = 0.000494801, No Iterations 1
DILUPBiCGStab:  Solving for e, Initial residual = 0.00116132, Final residual = 2.58112e-05, No Iterations 1
DICPCG:  Solving for p_rgh, Initial residual = 0.0747473, Final residual = 0.000742424, No Iterations 171
time step continuity errors : sum local = 22.3408, global = 5.57055, cumulative = -230.75
DILUPBiCGStab:  Solving for epsilon, Initial residual = 0, Final residual = 0, No Iterations 0
DILUPBiCGStab:  Solving for k, Initial residual = 0.00731253, Final residual = 0.000227671, No Iterations 1
ExecutionTime = 46.96 s  ClockTime = 47 s

Time = 993

DILUPBiCGStab:  Solving for Ux, Initial residual = 0.00974687, Final residual = 0.000418842, No Iterations 1
DILUPBiCGStab:  Solving for Uy, Initial residual = 0.0329275, Final residual = 0.00166204, No Iterations 1
DILUPBiCGStab:  Solving for Uz, Initial residual = 0.00573717, Final residual = 0.000408952, No Iterations 1
DILUPBiCGStab:  Solving for e, Initial residual = 0.00108076, Final residual = 2.42824e-05, No Iterations 1
DICPCG:  Solving for p_rgh, Initial residual = 0.0733732, Final residual = 0.00062943, No Iterations 209
time step continuity errors : sum local = 19.2586, global = 0.000718724, cumulative = -230.75
DILUPBiCGStab:  Solving for epsilon, Initial residual = 0, Final residual = 0, No Iterations 0
DILUPBiCGStab:  Solving for k, Initial residual = 0.0073735, Final residual = 0.0002389, No Iterations 1
ExecutionTime = 47.02 s  ClockTime = 47 s

Time = 994

DILUPBiCGStab:  Solving for Ux, Initial residual = 0.00975724, Final residual = 0.000515226, No Iterations 1
DILUPBiCGStab:  Solving for Uy, Initial residual = 0.0328396, Final residual = 0.00157068, No Iterations 1
DILUPBiCGStab:  Solving for Uz, Initial residual = 0.00615057, Final residual = 0.000345989, No Iterations 1
DILUPBiCGStab:  Solving for e, Initial residual = 0.00107907, Final residual = 2.41738e-05, No Iterations 1
DICPCG:  Solving for p_rgh, Initial residual = 0.0721958, Final residual = 0.000675668, No Iterations 63
time step continuity errors : sum local = 20.7946, global = 2.92663, cumulative = -227.823
DILUPBiCGStab:  Solving for epsilon, Initial residual = 0, Final residual = 0, No Iterations 0
DILUPBiCGStab:  Solving for k, Initial residual = 0.00746423, Final residual = 0.000243334, No Iterations 1
ExecutionTime = 47.05 s  ClockTime = 47 s

Time = 995

DILUPBiCGStab:  Solving for Ux, Initial residual = 0.0102146, Final residual = 0.00060662, No Iterations 1
DILUPBiCGStab:  Solving for Uy, Initial residual = 0.0349289, Final residual = 0.00145807, No Iterations 1
DILUPBiCGStab:  Solving for Uz, Initial residual = 0.00616748, Final residual = 0.000560039, No Iterations 1
DILUPBiCGStab:  Solving for e, Initial residual = 0.0010784, Final residual = 2.33329e-05, No Iterations 1
DICPCG:  Solving for p_rgh, Initial residual = 0.0698001, Final residual = 0.000602629, No Iterations 62
time step continuity errors : sum local = 19.1491, global = -4.24382, cumulative = -232.067
DILUPBiCGStab:  Solving for epsilon, Initial residual = 0, Final residual = 0, No Iterations 0
DILUPBiCGStab:  Solving for k, Initial residual = 0.00766345, Final residual = 0.000259999, No Iterations 1
ExecutionTime = 47.09 s  ClockTime = 47 s

Time = 996

DILUPBiCGStab:  Solving for Ux, Initial residual = 0.010782, Final residual = 0.000691256, No Iterations 1
DILUPBiCGStab:  Solving for Uy, Initial residual = 0.0356887, Final residual = 0.00133958, No Iterations 1
DILUPBiCGStab:  Solving for Uz, Initial residual = 0.00680622, Final residual = 0.000411238, No Iterations 1
DILUPBiCGStab:  Solving for e, Initial residual = 0.00110173, Final residual = 2.42619e-05, No Iterations 1
DICPCG:  Solving for p_rgh, Initial residual = 0.0760894, Final residual = 0.000754403, No Iterations 211
time step continuity errors : sum local = 23.7051, global = 0.0060468, cumulative = -232.061
DILUPBiCGStab:  Solving for epsilon, Initial residual = 0, Final residual = 0, No Iterations 0
DILUPBiCGStab:  Solving for k, Initial residual = 0.00785431, Final residual = 0.000271002, No Iterations 1
ExecutionTime = 47.15 s  ClockTime = 47 s

Time = 997

DILUPBiCGStab:  Solving for Ux, Initial residual = 0.0115281, Final residual = 0.00074841, No Iterations 1
DILUPBiCGStab:  Solving for Uy, Initial residual = 0.0362066, Final residual = 0.00128481, No Iterations 1
DILUPBiCGStab:  Solving for Uz, Initial residual = 0.00616186, Final residual = 0.000435993, No Iterations 1
DILUPBiCGStab:  Solving for e, Initial residual = 0.00109783, Final residual = 2.39976e-05, No Iterations 1
DICPCG:  Solving for p_rgh, Initial residual = 0.0770466, Final residual = 0.000733686, No Iterations 46
time step continuity errors : sum local = 22.5208, global = -7.76984, cumulative = -239.831
DILUPBiCGStab:  Solving for epsilon, Initial residual = 0, Final residual = 0, No Iterations 0
DILUPBiCGStab:  Solving for k, Initial residual = 0.00813591, Final residual = 0.000262991, No Iterations 1
ExecutionTime = 47.18 s  ClockTime = 48 s

Time = 998

DILUPBiCGStab:  Solving for Ux, Initial residual = 0.0124809, Final residual = 0.000782195, No Iterations 1
DILUPBiCGStab:  Solving for Uy, Initial residual = 0.0364751, Final residual = 0.00116074, No Iterations 1
DILUPBiCGStab:  Solving for Uz, Initial residual = 0.00963627, Final residual = 0.000821105, No Iterations 1
DILUPBiCGStab:  Solving for e, Initial residual = 0.00114012, Final residual = 2.56637e-05, No Iterations 1
DICPCG:  Solving for p_rgh, Initial residual = 0.0855768, Final residual = 0.000840151, No Iterations 91
time step continuity errors : sum local = 24.4487, global = -7.82258, cumulative = -247.653
DILUPBiCGStab:  Solving for epsilon, Initial residual = 0, Final residual = 0, No Iterations 0
DILUPBiCGStab:  Solving for k, Initial residual = 0.00840516, Final residual = 0.000257429, No Iterations 1
ExecutionTime = 47.22 s  ClockTime = 48 s

Time = 999

DILUPBiCGStab:  Solving for Ux, Initial residual = 0.0133668, Final residual = 0.000788641, No Iterations 1
DILUPBiCGStab:  Solving for Uy, Initial residual = 0.037346, Final residual = 0.00108663, No Iterations 1
DILUPBiCGStab:  Solving for Uz, Initial residual = 0.00950693, Final residual = 0.000741118, No Iterations 1
DILUPBiCGStab:  Solving for e, Initial residual = 0.00117287, Final residual = 2.62534e-05, No Iterations 1
DICPCG:  Solving for p_rgh, Initial residual = 0.0922149, Final residual = 0.000899416, No Iterations 90
time step continuity errors : sum local = 25.9209, global = -7.45237, cumulative = -255.105
DILUPBiCGStab:  Solving for epsilon, Initial residual = 0, Final residual = 0, No Iterations 0
DILUPBiCGStab:  Solving for k, Initial residual = 0.00870313, Final residual = 0.000240449, No Iterations 1
ExecutionTime = 47.26 s  ClockTime = 48 s

Time = 1000

DILUPBiCGStab:  Solving for Ux, Initial residual = 0.0139524, Final residual = 0.00078086, No Iterations 1
DILUPBiCGStab:  Solving for Uy, Initial residual = 0.0376641, Final residual = 0.00100606, No Iterations 1
DILUPBiCGStab:  Solving for Uz, Initial residual = 0.00794016, Final residual = 0.000563818, No Iterations 1
DILUPBiCGStab:  Solving for e, Initial residual = 0.00122636, Final residual = 2.64748e-05, No Iterations 1
DICPCG:  Solving for p_rgh, Initial residual = 0.0974098, Final residual = 0.000910434, No Iterations 97
time step continuity errors : sum local = 26.7705, global = -3.67258, cumulative = -258.778
DILUPBiCGStab:  Solving for epsilon, Initial residual = 0, Final residual = 0, No Iterations 0
DILUPBiCGStab:  Solving for k, Initial residual = 0.00901983, Final residual = 0.000212558, No Iterations 1
ExecutionTime = 47.41 s  ClockTime = 48 s

End

