/*---------------------------------------------------------------------------*\
  =========                 |
  \\      /  F ield         | OpenFOAM: The Open Source CFD Toolbox
   \\    /   O peration     | Website:  https://openfoam.org
    \\  /    A nd           | Version:  8
     \\/     M anipulation  |
\*---------------------------------------------------------------------------*/
Build  : 8-1c9b5879390b
Exec   : buoyantSimpleFoam
Date   : Jan 27 2025
Time   : 14:46:17
Host   : "658dd9edf29b"
PID    : 846
I/O    : uncollated
Case   : /home/openfoam/run/180bentPipe/Re20000/q-500
nProcs : 1
sigFpe : Enabling floating point exception trapping (FOAM_SIGFPE).
fileModificationChecking : Monitoring run-time modified files using timeStampMaster (fileModificationSkew 10)
allowSystemOperations : Allowing user-supplied system call operations

// * * * * * * * * * * * * * * * * * * * * * * * * * * * * * * * * * * * * * //
Create time

Create mesh for time = 0


SIMPLE: Convergence criteria found
        p_rgh: tolerance 0.01
        U: tolerance 0.0001
        e: tolerance 0.01
        "(k|epsilon|omega)": tolerance 0.001

Reading thermophysical properties

Selecting thermodynamics package 
{
    type            heRhoThermo;
    mixture         pureMixture;
    transport       const;
    thermo          eConst;
    equationOfState Boussinesq;
    specie          specie;
    energy          sensibleInternalEnergy;
}

Reading field U

Reading/calculating face flux field phi

Creating turbulence model

Selecting turbulence model type RAS
Selecting RAS turbulence model kEpsilon
RAS
{
    RASModel        kEpsilon;
    turbulence      on;
    printCoeffs     on;
    Cmu             0.09;
    C1              1.44;
    C2              1.92;
    C3              0;
    sigmak          1;
    sigmaEps        1.3;
}

Creating thermophysical transport model

Selecting thermophysical transport type RAS
Selecting default RAS thermophysical transport model eddyDiffusivity

Reading g

Reading hRef
Calculating field g.h


Reading pRef
Reading field p_rgh

--> FOAM Warning : 
    From function const Foam::HashTable<Foam::List<int>, Foam::word>& Foam::polyBoundaryMesh::groupPatchIDs() const
    in file meshes/polyMesh/polyBoundaryMesh/polyBoundaryMesh.C at line 473
    Removing patchGroup 'wall' which clashes with patch 0 of the same name.
No MRF models present

Radiation model not active: radiationProperties not found
Selecting radiationModel none
No finite volume options present

Starting time loop

Time = 1

DILUPBiCGStab:  Solving for Ux, Initial residual = 1, Final residual = 0.0798842, No Iterations 1
DILUPBiCGStab:  Solving for Uy, Initial residual = 1, Final residual = 0.0313882, No Iterations 1
DILUPBiCGStab:  Solving for Uz, Initial residual = 1, Final residual = 0.0675917, No Iterations 1
DILUPBiCGStab:  Solving for e, Initial residual = 1, Final residual = 0.000428405, No Iterations 1
DICPCG:  Solving for p_rgh, Initial residual = 0.999202, Final residual = 0.00706593, No Iterations 198
time step continuity errors : sum local = 569.763, global = -0.698083, cumulative = -0.698083
DILUPBiCGStab:  Solving for epsilon, Initial residual = 0, Final residual = 0, No Iterations 0
DILUPBiCGStab:  Solving for k, Initial residual = 1, Final residual = 0.056058, No Iterations 1
ExecutionTime = 0.24 s  ClockTime = 1 s

Time = 2

DILUPBiCGStab:  Solving for Ux, Initial residual = 0.0283234, Final residual = 0.000462176, No Iterations 1
DILUPBiCGStab:  Solving for Uy, Initial residual = 0.138946, Final residual = 0.000516719, No Iterations 1
DILUPBiCGStab:  Solving for Uz, Initial residual = 0.609803, Final residual = 0.011457, No Iterations 1
DILUPBiCGStab:  Solving for e, Initial residual = 0.200971, Final residual = 6.86194e-06, No Iterations 1
DICPCG:  Solving for p_rgh, Initial residual = 0.0544659, Final residual = 0.000466301, No Iterations 182
time step continuity errors : sum local = 880.972, global = -1.62345, cumulative = -2.32153
DILUPBiCGStab:  Solving for epsilon, Initial residual = 0, Final residual = 0, No Iterations 0
DILUPBiCGStab:  Solving for k, Initial residual = 0.152706, Final residual = 1.78321e-05, No Iterations 1
ExecutionTime = 0.3 s  ClockTime = 1 s

Time = 3

DILUPBiCGStab:  Solving for Ux, Initial residual = 0.251036, Final residual = 0.00279374, No Iterations 1
DILUPBiCGStab:  Solving for Uy, Initial residual = 0.248974, Final residual = 0.00518435, No Iterations 1
DILUPBiCGStab:  Solving for Uz, Initial residual = 0.474573, Final residual = 0.0025762, No Iterations 1
DILUPBiCGStab:  Solving for e, Initial residual = 0.172912, Final residual = 0.00067666, No Iterations 1
DICPCG:  Solving for p_rgh, Initial residual = 0.127434, Final residual = 0.00118075, No Iterations 188
time step continuity errors : sum local = 1248.73, global = 2.04574, cumulative = -0.275792
DILUPBiCGStab:  Solving for epsilon, Initial residual = 0, Final residual = 0, No Iterations 0
DILUPBiCGStab:  Solving for k, Initial residual = 0.130135, Final residual = 0.00286715, No Iterations 1
ExecutionTime = 0.36 s  ClockTime = 1 s

Time = 4

DILUPBiCGStab:  Solving for Ux, Initial residual = 0.205955, Final residual = 0.00331649, No Iterations 1
DILUPBiCGStab:  Solving for Uy, Initial residual = 0.225336, Final residual = 0.00478576, No Iterations 1
DILUPBiCGStab:  Solving for Uz, Initial residual = 0.268372, Final residual = 0.00488036, No Iterations 1
DILUPBiCGStab:  Solving for e, Initial residual = 0.26926, Final residual = 0.00222076, No Iterations 1
DICPCG:  Solving for p_rgh, Initial residual = 0.131119, Final residual = 0.00120245, No Iterations 196
time step continuity errors : sum local = 908.769, global = 4.85341, cumulative = 4.57762
DILUPBiCGStab:  Solving for epsilon, Initial residual = 0, Final residual = 0, No Iterations 0
DILUPBiCGStab:  Solving for k, Initial residual = 0.078963, Final residual = 0.00347564, No Iterations 1
ExecutionTime = 0.42 s  ClockTime = 1 s

Time = 5

DILUPBiCGStab:  Solving for Ux, Initial residual = 0.438638, Final residual = 0.015973, No Iterations 1
DILUPBiCGStab:  Solving for Uy, Initial residual = 0.395509, Final residual = 0.014284, No Iterations 1
DILUPBiCGStab:  Solving for Uz, Initial residual = 0.380275, Final residual = 0.00298406, No Iterations 1
DILUPBiCGStab:  Solving for e, Initial residual = 0.156773, Final residual = 0.00203416, No Iterations 1
DICPCG:  Solving for p_rgh, Initial residual = 0.0772906, Final residual = 0.000531358, No Iterations 194
time step continuity errors : sum local = 630.929, global = -1.43567, cumulative = 3.14195
DILUPBiCGStab:  Solving for epsilon, Initial residual = 0, Final residual = 0, No Iterations 0
DILUPBiCGStab:  Solving for k, Initial residual = 0.0574631, Final residual = 0.00169107, No Iterations 1
ExecutionTime = 0.48 s  ClockTime = 1 s

Time = 6

DILUPBiCGStab:  Solving for Ux, Initial residual = 0.247232, Final residual = 0.0118236, No Iterations 1
DILUPBiCGStab:  Solving for Uy, Initial residual = 0.220655, Final residual = 0.014432, No Iterations 1
DILUPBiCGStab:  Solving for Uz, Initial residual = 0.218083, Final residual = 0.00629738, No Iterations 1
DILUPBiCGStab:  Solving for e, Initial residual = 0.122141, Final residual = 0.00166544, No Iterations 1
DICPCG:  Solving for p_rgh, Initial residual = 0.191141, Final residual = 0.00172275, No Iterations 196
time step continuity errors : sum local = 826.784, global = 4.49098, cumulative = 7.63293
DILUPBiCGStab:  Solving for epsilon, Initial residual = 0, Final residual = 0, No Iterations 0
DILUPBiCGStab:  Solving for k, Initial residual = 0.0443593, Final residual = 0.00108904, No Iterations 1
ExecutionTime = 0.54 s  ClockTime = 1 s

Time = 7

DILUPBiCGStab:  Solving for Ux, Initial residual = 0.267455, Final residual = 0.0132677, No Iterations 1
DILUPBiCGStab:  Solving for Uy, Initial residual = 0.261656, Final residual = 0.0143322, No Iterations 1
DILUPBiCGStab:  Solving for Uz, Initial residual = 0.150433, Final residual = 0.00624339, No Iterations 1
DILUPBiCGStab:  Solving for e, Initial residual = 0.14763, Final residual = 0.00178119, No Iterations 1
DICPCG:  Solving for p_rgh, Initial residual = 0.124676, Final residual = 0.00111894, No Iterations 199
time step continuity errors : sum local = 672.741, global = -6.36018, cumulative = 1.27276
DILUPBiCGStab:  Solving for epsilon, Initial residual = 0, Final residual = 0, No Iterations 0
DILUPBiCGStab:  Solving for k, Initial residual = 0.0355637, Final residual = 0.000740011, No Iterations 1
ExecutionTime = 0.6 s  ClockTime = 1 s

Time = 8

DILUPBiCGStab:  Solving for Ux, Initial residual = 0.226182, Final residual = 0.0117152, No Iterations 1
DILUPBiCGStab:  Solving for Uy, Initial residual = 0.219869, Final residual = 0.0112528, No Iterations 1
DILUPBiCGStab:  Solving for Uz, Initial residual = 0.141575, Final residual = 0.00509773, No Iterations 1
DILUPBiCGStab:  Solving for e, Initial residual = 0.0704329, Final residual = 0.000895602, No Iterations 1
DICPCG:  Solving for p_rgh, Initial residual = 0.11128, Final residual = 0.000955944, No Iterations 201
time step continuity errors : sum local = 730.612, global = -1.62329, cumulative = -0.350533
DILUPBiCGStab:  Solving for epsilon, Initial residual = 0, Final residual = 0, No Iterations 0
DILUPBiCGStab:  Solving for k, Initial residual = 0.0295481, Final residual = 0.000535217, No Iterations 1
ExecutionTime = 0.66 s  ClockTime = 1 s

Time = 9

DILUPBiCGStab:  Solving for Ux, Initial residual = 0.055855, Final residual = 0.00330929, No Iterations 1
DILUPBiCGStab:  Solving for Uy, Initial residual = 0.0717018, Final residual = 0.00632062, No Iterations 1
DILUPBiCGStab:  Solving for Uz, Initial residual = 0.114293, Final residual = 0.00518884, No Iterations 1
DILUPBiCGStab:  Solving for e, Initial residual = 0.070896, Final residual = 0.000716077, No Iterations 1
DICPCG:  Solving for p_rgh, Initial residual = 0.477024, Final residual = 0.00468461, No Iterations 198
time step continuity errors : sum local = 754.975, global = -0.887576, cumulative = -1.23811
DILUPBiCGStab:  Solving for epsilon, Initial residual = 0, Final residual = 0, No Iterations 0
DILUPBiCGStab:  Solving for k, Initial residual = 0.0250985, Final residual = 0.000434418, No Iterations 1
ExecutionTime = 0.71 s  ClockTime = 1 s

Time = 10

DILUPBiCGStab:  Solving for Ux, Initial residual = 0.161417, Final residual = 0.00803692, No Iterations 1
DILUPBiCGStab:  Solving for Uy, Initial residual = 0.156653, Final residual = 0.0128755, No Iterations 1
DILUPBiCGStab:  Solving for Uz, Initial residual = 0.102522, Final residual = 0.00486638, No Iterations 1
DILUPBiCGStab:  Solving for e, Initial residual = 0.0704489, Final residual = 0.00090158, No Iterations 1
DICPCG:  Solving for p_rgh, Initial residual = 0.130055, Final residual = 0.00120303, No Iterations 196
time step continuity errors : sum local = 607.436, global = -7.34265, cumulative = -8.58076
DILUPBiCGStab:  Solving for epsilon, Initial residual = 0, Final residual = 0, No Iterations 0
DILUPBiCGStab:  Solving for k, Initial residual = 0.0216686, Final residual = 0.000352145, No Iterations 1
ExecutionTime = 0.77 s  ClockTime = 1 s

Time = 11

DILUPBiCGStab:  Solving for Ux, Initial residual = 0.179548, Final residual = 0.00974637, No Iterations 1
DILUPBiCGStab:  Solving for Uy, Initial residual = 0.157966, Final residual = 0.0119186, No Iterations 1
DILUPBiCGStab:  Solving for Uz, Initial residual = 0.0871777, Final residual = 0.00381754, No Iterations 1
DILUPBiCGStab:  Solving for e, Initial residual = 0.0378969, Final residual = 0.00047969, No Iterations 1
DICPCG:  Solving for p_rgh, Initial residual = 0.148312, Final residual = 0.00127967, No Iterations 197
time step continuity errors : sum local = 556.962, global = 2.1554, cumulative = -6.42536
DILUPBiCGStab:  Solving for epsilon, Initial residual = 0, Final residual = 0, No Iterations 0
DILUPBiCGStab:  Solving for k, Initial residual = 0.018954, Final residual = 0.000287183, No Iterations 1
ExecutionTime = 0.83 s  ClockTime = 1 s

Time = 12

DILUPBiCGStab:  Solving for Ux, Initial residual = 0.0680966, Final residual = 0.00393576, No Iterations 1
DILUPBiCGStab:  Solving for Uy, Initial residual = 0.0744694, Final residual = 0.00730153, No Iterations 1
DILUPBiCGStab:  Solving for Uz, Initial residual = 0.0773913, Final residual = 0.00375935, No Iterations 1
DILUPBiCGStab:  Solving for e, Initial residual = 0.0467178, Final residual = 0.000488786, No Iterations 1
DICPCG:  Solving for p_rgh, Initial residual = 0.722526, Final residual = 0.00549052, No Iterations 193
time step continuity errors : sum local = 384.065, global = -1.54064, cumulative = -7.966
DILUPBiCGStab:  Solving for epsilon, Initial residual = 0, Final residual = 0, No Iterations 0
DILUPBiCGStab:  Solving for k, Initial residual = 0.0167129, Final residual = 0.000236013, No Iterations 1
ExecutionTime = 0.89 s  ClockTime = 1 s

Time = 13

DILUPBiCGStab:  Solving for Ux, Initial residual = 0.117467, Final residual = 0.00572706, No Iterations 1
DILUPBiCGStab:  Solving for Uy, Initial residual = 0.121142, Final residual = 0.0115677, No Iterations 1
DILUPBiCGStab:  Solving for Uz, Initial residual = 0.0655689, Final residual = 0.0041026, No Iterations 1
DILUPBiCGStab:  Solving for e, Initial residual = 0.0415827, Final residual = 0.000395029, No Iterations 1
DICPCG:  Solving for p_rgh, Initial residual = 0.118948, Final residual = 0.00107748, No Iterations 193
time step continuity errors : sum local = 379.966, global = 0.527282, cumulative = -7.43872
DILUPBiCGStab:  Solving for epsilon, Initial residual = 0, Final residual = 0, No Iterations 0
DILUPBiCGStab:  Solving for k, Initial residual = 0.0149689, Final residual = 0.000200452, No Iterations 1
ExecutionTime = 0.95 s  ClockTime = 1 s

Time = 14

DILUPBiCGStab:  Solving for Ux, Initial residual = 0.0778974, Final residual = 0.00381724, No Iterations 1
DILUPBiCGStab:  Solving for Uy, Initial residual = 0.0766225, Final residual = 0.00702078, No Iterations 1
DILUPBiCGStab:  Solving for Uz, Initial residual = 0.0592579, Final residual = 0.00346872, No Iterations 1
DILUPBiCGStab:  Solving for e, Initial residual = 0.0262937, Final residual = 0.000180836, No Iterations 1
DICPCG:  Solving for p_rgh, Initial residual = 0.141216, Final residual = 0.000952622, No Iterations 196
time step continuity errors : sum local = 282.172, global = 0.536236, cumulative = -6.90248
DILUPBiCGStab:  Solving for epsilon, Initial residual = 0, Final residual = 0, No Iterations 0
DILUPBiCGStab:  Solving for k, Initial residual = 0.0134491, Final residual = 0.000176413, No Iterations 1
ExecutionTime = 1 s  ClockTime = 1 s

Time = 15

DILUPBiCGStab:  Solving for Ux, Initial residual = 0.0353281, Final residual = 0.00144479, No Iterations 1
DILUPBiCGStab:  Solving for Uy, Initial residual = 0.0511293, Final residual = 0.00401356, No Iterations 1
DILUPBiCGStab:  Solving for Uz, Initial residual = 0.055282, Final residual = 0.0027361, No Iterations 1
DILUPBiCGStab:  Solving for e, Initial residual = 0.0300634, Final residual = 0.000193182, No Iterations 1
DICPCG:  Solving for p_rgh, Initial residual = 0.263669, Final residual = 0.00211358, No Iterations 195
time step continuity errors : sum local = 260.87, global = -0.943523, cumulative = -7.84601
DILUPBiCGStab:  Solving for epsilon, Initial residual = 0, Final residual = 0, No Iterations 0
DILUPBiCGStab:  Solving for k, Initial residual = 0.0121764, Final residual = 0.000156472, No Iterations 1
ExecutionTime = 1.06 s  ClockTime = 1 s

Time = 16

DILUPBiCGStab:  Solving for Ux, Initial residual = 0.0722588, Final residual = 0.00273532, No Iterations 1
DILUPBiCGStab:  Solving for Uy, Initial residual = 0.0723625, Final residual = 0.00504661, No Iterations 1
DILUPBiCGStab:  Solving for Uz, Initial residual = 0.0490618, Final residual = 0.00228429, No Iterations 1
DILUPBiCGStab:  Solving for e, Initial residual = 0.0255841, Final residual = 0.000147092, No Iterations 1
DICPCG:  Solving for p_rgh, Initial residual = 0.0787086, Final residual = 0.000581986, No Iterations 192
time step continuity errors : sum local = 199.952, global = -0.352364, cumulative = -8.19837
DILUPBiCGStab:  Solving for epsilon, Initial residual = 0, Final residual = 0, No Iterations 0
DILUPBiCGStab:  Solving for k, Initial residual = 0.0110751, Final residual = 0.000138088, No Iterations 1
ExecutionTime = 1.12 s  ClockTime = 2 s

Time = 17

DILUPBiCGStab:  Solving for Ux, Initial residual = 0.0440824, Final residual = 0.00160621, No Iterations 1
DILUPBiCGStab:  Solving for Uy, Initial residual = 0.0434612, Final residual = 0.00322473, No Iterations 1
DILUPBiCGStab:  Solving for Uz, Initial residual = 0.0469288, Final residual = 0.00218907, No Iterations 1
DILUPBiCGStab:  Solving for e, Initial residual = 0.0205483, Final residual = 9.05024e-05, No Iterations 1
DICPCG:  Solving for p_rgh, Initial residual = 0.180436, Final residual = 0.00141564, No Iterations 197
time step continuity errors : sum local = 207.405, global = 0.483453, cumulative = -7.71492
DILUPBiCGStab:  Solving for epsilon, Initial residual = 0, Final residual = 0, No Iterations 0
DILUPBiCGStab:  Solving for k, Initial residual = 0.0101455, Final residual = 0.00012351, No Iterations 1
ExecutionTime = 1.18 s  ClockTime = 2 s

Time = 18

DILUPBiCGStab:  Solving for Ux, Initial residual = 0.0314655, Final residual = 0.000878047, No Iterations 1
DILUPBiCGStab:  Solving for Uy, Initial residual = 0.0430537, Final residual = 0.00295466, No Iterations 1
DILUPBiCGStab:  Solving for Uz, Initial residual = 0.0450642, Final residual = 0.00205154, No Iterations 1
DILUPBiCGStab:  Solving for e, Initial residual = 0.0218613, Final residual = 0.000104312, No Iterations 1
DICPCG:  Solving for p_rgh, Initial residual = 0.215804, Final residual = 0.00212061, No Iterations 195
time step continuity errors : sum local = 206.186, global = 0.479606, cumulative = -7.23531
DILUPBiCGStab:  Solving for epsilon, Initial residual = 0, Final residual = 0, No Iterations 0
DILUPBiCGStab:  Solving for k, Initial residual = 0.00932794, Final residual = 0.000111354, No Iterations 1
ExecutionTime = 1.23 s  ClockTime = 2 s

Time = 19

DILUPBiCGStab:  Solving for Ux, Initial residual = 0.044209, Final residual = 0.00163132, No Iterations 1
DILUPBiCGStab:  Solving for Uy, Initial residual = 0.0421418, Final residual = 0.00357668, No Iterations 1
DILUPBiCGStab:  Solving for Uz, Initial residual = 0.0414261, Final residual = 0.00203106, No Iterations 1
DILUPBiCGStab:  Solving for e, Initial residual = 0.0182225, Final residual = 7.6858e-05, No Iterations 1
DICPCG:  Solving for p_rgh, Initial residual = 0.139279, Final residual = 0.00129178, No Iterations 196
time step continuity errors : sum local = 169.48, global = -1.04214, cumulative = -8.27745
DILUPBiCGStab:  Solving for epsilon, Initial residual = 0, Final residual = 0, No Iterations 0
DILUPBiCGStab:  Solving for k, Initial residual = 0.00861903, Final residual = 0.000100581, No Iterations 1
ExecutionTime = 1.29 s  ClockTime = 2 s

Time = 20

DILUPBiCGStab:  Solving for Ux, Initial residual = 0.0201967, Final residual = 0.000911798, No Iterations 1
DILUPBiCGStab:  Solving for Uy, Initial residual = 0.0198083, Final residual = 0.00155209, No Iterations 1
DILUPBiCGStab:  Solving for Uz, Initial residual = 0.0369457, Final residual = 0.00152971, No Iterations 1
DILUPBiCGStab:  Solving for e, Initial residual = 0.0165294, Final residual = 5.24195e-05, No Iterations 1
DICPCG:  Solving for p_rgh, Initial residual = 0.287724, Final residual = 0.00263869, No Iterations 196
time step continuity errors : sum local = 155.923, global = 0.244934, cumulative = -8.03252
DILUPBiCGStab:  Solving for epsilon, Initial residual = 0, Final residual = 0, No Iterations 0
DILUPBiCGStab:  Solving for k, Initial residual = 0.00799096, Final residual = 9.01936e-05, No Iterations 1
ExecutionTime = 1.35 s  ClockTime = 2 s

Time = 21

DILUPBiCGStab:  Solving for Ux, Initial residual = 0.0210969, Final residual = 0.000806573, No Iterations 1
DILUPBiCGStab:  Solving for Uy, Initial residual = 0.0271501, Final residual = 0.0012681, No Iterations 1
DILUPBiCGStab:  Solving for Uz, Initial residual = 0.0344738, Final residual = 0.00142775, No Iterations 1
DILUPBiCGStab:  Solving for e, Initial residual = 0.0162083, Final residual = 5.14551e-05, No Iterations 1
DICPCG:  Solving for p_rgh, Initial residual = 0.195121, Final residual = 0.00173385, No Iterations 196
time step continuity errors : sum local = 122.962, global = -0.152766, cumulative = -8.18528
DILUPBiCGStab:  Solving for epsilon, Initial residual = 0, Final residual = 0, No Iterations 0
DILUPBiCGStab:  Solving for k, Initial residual = 0.00742331, Final residual = 7.99703e-05, No Iterations 1
ExecutionTime = 1.41 s  ClockTime = 2 s

Time = 22

DILUPBiCGStab:  Solving for Ux, Initial residual = 0.0248634, Final residual = 0.00102499, No Iterations 1
DILUPBiCGStab:  Solving for Uy, Initial residual = 0.0254462, Final residual = 0.00167931, No Iterations 1
DILUPBiCGStab:  Solving for Uz, Initial residual = 0.0307529, Final residual = 0.00132606, No Iterations 1
DILUPBiCGStab:  Solving for e, Initial residual = 0.0140213, Final residual = 3.65439e-05, No Iterations 1
DICPCG:  Solving for p_rgh, Initial residual = 0.17772, Final residual = 0.00143199, No Iterations 198
time step continuity errors : sum local = 107.836, global = -0.254272, cumulative = -8.43956
DILUPBiCGStab:  Solving for epsilon, Initial residual = 0, Final residual = 0, No Iterations 0
DILUPBiCGStab:  Solving for k, Initial residual = 0.00692407, Final residual = 7.102e-05, No Iterations 1
ExecutionTime = 1.46 s  ClockTime = 2 s

Time = 23

DILUPBiCGStab:  Solving for Ux, Initial residual = 0.0114547, Final residual = 0.000489732, No Iterations 1
DILUPBiCGStab:  Solving for Uy, Initial residual = 0.0166088, Final residual = 0.0010125, No Iterations 1
DILUPBiCGStab:  Solving for Uz, Initial residual = 0.0297324, Final residual = 0.00140944, No Iterations 1
DILUPBiCGStab:  Solving for e, Initial residual = 0.0136821, Final residual = 3.25303e-05, No Iterations 1
DICPCG:  Solving for p_rgh, Initial residual = 0.395665, Final residual = 0.00301973, No Iterations 197
time step continuity errors : sum local = 92.5083, global = -0.187774, cumulative = -8.62733
DILUPBiCGStab:  Solving for epsilon, Initial residual = 0, Final residual = 0, No Iterations 0
DILUPBiCGStab:  Solving for k, Initial residual = 0.00648412, Final residual = 6.26835e-05, No Iterations 1
ExecutionTime = 1.52 s  ClockTime = 2 s

Time = 24

DILUPBiCGStab:  Solving for Ux, Initial residual = 0.0156463, Final residual = 0.000446527, No Iterations 1
DILUPBiCGStab:  Solving for Uy, Initial residual = 0.0190685, Final residual = 0.001088, No Iterations 1
DILUPBiCGStab:  Solving for Uz, Initial residual = 0.0270427, Final residual = 0.00130112, No Iterations 1
DILUPBiCGStab:  Solving for e, Initial residual = 0.0132241, Final residual = 3.18269e-05, No Iterations 1
DICPCG:  Solving for p_rgh, Initial residual = 0.18226, Final residual = 0.00164226, No Iterations 166
time step continuity errors : sum local = 88.8063, global = -4.32478, cumulative = -12.9521
DILUPBiCGStab:  Solving for epsilon, Initial residual = 0, Final residual = 0, No Iterations 0
DILUPBiCGStab:  Solving for k, Initial residual = 0.00609232, Final residual = 5.53676e-05, No Iterations 1
ExecutionTime = 1.57 s  ClockTime = 2 s

Time = 25

DILUPBiCGStab:  Solving for Ux, Initial residual = 0.0139947, Final residual = 0.000520705, No Iterations 1
DILUPBiCGStab:  Solving for Uy, Initial residual = 0.0140732, Final residual = 0.000955308, No Iterations 1
DILUPBiCGStab:  Solving for Uz, Initial residual = 0.0253197, Final residual = 0.00109032, No Iterations 1
DILUPBiCGStab:  Solving for e, Initial residual = 0.0121, Final residual = 2.51054e-05, No Iterations 1
DICPCG:  Solving for p_rgh, Initial residual = 0.186424, Final residual = 0.00184759, No Iterations 197
time step continuity errors : sum local = 88.3462, global = 0.200631, cumulative = -12.7515
DILUPBiCGStab:  Solving for epsilon, Initial residual = 0, Final residual = 0, No Iterations 0
DILUPBiCGStab:  Solving for k, Initial residual = 0.00573573, Final residual = 4.82166e-05, No Iterations 1
ExecutionTime = 1.63 s  ClockTime = 2 s

Time = 26

DILUPBiCGStab:  Solving for Ux, Initial residual = 0.00739582, Final residual = 0.000351096, No Iterations 1
DILUPBiCGStab:  Solving for Uy, Initial residual = 0.0113752, Final residual = 0.000514981, No Iterations 1
DILUPBiCGStab:  Solving for Uz, Initial residual = 0.0250605, Final residual = 0.00114448, No Iterations 1
DILUPBiCGStab:  Solving for e, Initial residual = 0.0118485, Final residual = 2.21355e-05, No Iterations 1
DICPCG:  Solving for p_rgh, Initial residual = 0.324234, Final residual = 0.00285133, No Iterations 198
time step continuity errors : sum local = 70.2048, global = 0.0427313, cumulative = -12.7087
DILUPBiCGStab:  Solving for epsilon, Initial residual = 0, Final residual = 0, No Iterations 0
DILUPBiCGStab:  Solving for k, Initial residual = 0.00540973, Final residual = 4.20713e-05, No Iterations 1
ExecutionTime = 1.69 s  ClockTime = 2 s

Time = 27

DILUPBiCGStab:  Solving for Ux, Initial residual = 0.0103935, Final residual = 0.000361585, No Iterations 1
DILUPBiCGStab:  Solving for Uy, Initial residual = 0.0134728, Final residual = 0.000692383, No Iterations 1
DILUPBiCGStab:  Solving for Uz, Initial residual = 0.0240773, Final residual = 0.00132594, No Iterations 1
DILUPBiCGStab:  Solving for e, Initial residual = 0.0112546, Final residual = 1.97768e-05, No Iterations 1
DICPCG:  Solving for p_rgh, Initial residual = 0.176433, Final residual = 0.00160425, No Iterations 186
time step continuity errors : sum local = 65.4723, global = 0.814956, cumulative = -11.8938
DILUPBiCGStab:  Solving for epsilon, Initial residual = 0, Final residual = 0, No Iterations 0
DILUPBiCGStab:  Solving for k, Initial residual = 0.0051142, Final residual = 3.64767e-05, No Iterations 1
ExecutionTime = 1.76 s  ClockTime = 2 s

Time = 28

DILUPBiCGStab:  Solving for Ux, Initial residual = 0.00863405, Final residual = 0.000334649, No Iterations 1
DILUPBiCGStab:  Solving for Uy, Initial residual = 0.00966615, Final residual = 0.000666019, No Iterations 1
DILUPBiCGStab:  Solving for Uz, Initial residual = 0.0226339, Final residual = 0.00146522, No Iterations 1
DILUPBiCGStab:  Solving for e, Initial residual = 0.0106296, Final residual = 1.69517e-05, No Iterations 1
DICPCG:  Solving for p_rgh, Initial residual = 0.205076, Final residual = 0.00198924, No Iterations 165
time step continuity errors : sum local = 66.3632, global = 0.829365, cumulative = -11.0644
DILUPBiCGStab:  Solving for epsilon, Initial residual = 0, Final residual = 0, No Iterations 0
DILUPBiCGStab:  Solving for k, Initial residual = 0.00485176, Final residual = 3.17793e-05, No Iterations 1
ExecutionTime = 1.82 s  ClockTime = 2 s

Time = 29

DILUPBiCGStab:  Solving for Ux, Initial residual = 0.00664178, Final residual = 0.000273189, No Iterations 1
DILUPBiCGStab:  Solving for Uy, Initial residual = 0.00983042, Final residual = 0.000607724, No Iterations 1
DILUPBiCGStab:  Solving for Uz, Initial residual = 0.0220279, Final residual = 0.00150087, No Iterations 1
DILUPBiCGStab:  Solving for e, Initial residual = 0.0103724, Final residual = 1.66101e-05, No Iterations 1
DICPCG:  Solving for p_rgh, Initial residual = 0.268807, Final residual = 0.00258769, No Iterations 180
time step continuity errors : sum local = 59.4068, global = -0.535846, cumulative = -11.6003
DILUPBiCGStab:  Solving for epsilon, Initial residual = 0, Final residual = 0, No Iterations 0
DILUPBiCGStab:  Solving for k, Initial residual = 0.00460431, Final residual = 2.80087e-05, No Iterations 1
ExecutionTime = 1.87 s  ClockTime = 2 s

Time = 30

DILUPBiCGStab:  Solving for Ux, Initial residual = 0.00753981, Final residual = 0.000281794, No Iterations 1
DILUPBiCGStab:  Solving for Uy, Initial residual = 0.00951782, Final residual = 0.000519813, No Iterations 1
DILUPBiCGStab:  Solving for Uz, Initial residual = 0.0210119, Final residual = 0.00127988, No Iterations 1
DILUPBiCGStab:  Solving for e, Initial residual = 0.00994387, Final residual = 1.68043e-05, No Iterations 1
DICPCG:  Solving for p_rgh, Initial residual = 0.190524, Final residual = 0.00169566, No Iterations 197
time step continuity errors : sum local = 49.684, global = 0.0949785, cumulative = -11.5053
DILUPBiCGStab:  Solving for epsilon, Initial residual = 0, Final residual = 0, No Iterations 0
DILUPBiCGStab:  Solving for k, Initial residual = 0.00437764, Final residual = 2.51407e-05, No Iterations 1
ExecutionTime = 1.93 s  ClockTime = 2 s

Time = 31

DILUPBiCGStab:  Solving for Ux, Initial residual = 0.0057069, Final residual = 0.000270403, No Iterations 1
DILUPBiCGStab:  Solving for Uy, Initial residual = 0.00752768, Final residual = 0.000438668, No Iterations 1
DILUPBiCGStab:  Solving for Uz, Initial residual = 0.0203673, Final residual = 0.00131539, No Iterations 1
DILUPBiCGStab:  Solving for e, Initial residual = 0.00963669, Final residual = 1.73777e-05, No Iterations 1
DICPCG:  Solving for p_rgh, Initial residual = 0.218947, Final residual = 0.00215415, No Iterations 193
time step continuity errors : sum local = 49.6367, global = -0.392016, cumulative = -11.8973
DILUPBiCGStab:  Solving for epsilon, Initial residual = 0, Final residual = 0, No Iterations 0
DILUPBiCGStab:  Solving for k, Initial residual = 0.00417175, Final residual = 2.30623e-05, No Iterations 1
ExecutionTime = 1.99 s  ClockTime = 2 s

Time = 32

DILUPBiCGStab:  Solving for Ux, Initial residual = 0.00505191, Final residual = 0.000257403, No Iterations 1
DILUPBiCGStab:  Solving for Uy, Initial residual = 0.00814263, Final residual = 0.000485672, No Iterations 1
DILUPBiCGStab:  Solving for Uz, Initial residual = 0.0202861, Final residual = 0.00141749, No Iterations 1
DILUPBiCGStab:  Solving for e, Initial residual = 0.00937961, Final residual = 1.78858e-05, No Iterations 1
DICPCG:  Solving for p_rgh, Initial residual = 0.200669, Final residual = 0.00192746, No Iterations 197
time step continuity errors : sum local = 42.7994, global = 0.136142, cumulative = -11.7612
DILUPBiCGStab:  Solving for epsilon, Initial residual = 0, Final residual = 0, No Iterations 0
DILUPBiCGStab:  Solving for k, Initial residual = 0.00398016, Final residual = 2.13878e-05, No Iterations 1
ExecutionTime = 2.04 s  ClockTime = 2 s

Time = 33

DILUPBiCGStab:  Solving for Ux, Initial residual = 0.00527329, Final residual = 0.00025043, No Iterations 1
DILUPBiCGStab:  Solving for Uy, Initial residual = 0.00726161, Final residual = 0.000529651, No Iterations 1
DILUPBiCGStab:  Solving for Uz, Initial residual = 0.0202323, Final residual = 0.0014449, No Iterations 1
DILUPBiCGStab:  Solving for e, Initial residual = 0.00903307, Final residual = 1.77302e-05, No Iterations 1
DICPCG:  Solving for p_rgh, Initial residual = 0.176331, Final residual = 0.0016451, No Iterations 188
time step continuity errors : sum local = 39.1962, global = 0.154281, cumulative = -11.6069
DILUPBiCGStab:  Solving for epsilon, Initial residual = 0, Final residual = 0, No Iterations 0
DILUPBiCGStab:  Solving for k, Initial residual = 0.00380539, Final residual = 1.99793e-05, No Iterations 1
ExecutionTime = 2.1 s  ClockTime = 3 s

Time = 34

DILUPBiCGStab:  Solving for Ux, Initial residual = 0.00454101, Final residual = 0.000250403, No Iterations 1
DILUPBiCGStab:  Solving for Uy, Initial residual = 0.00631045, Final residual = 0.000502859, No Iterations 1
DILUPBiCGStab:  Solving for Uz, Initial residual = 0.0197336, Final residual = 0.00141976, No Iterations 1
DILUPBiCGStab:  Solving for e, Initial residual = 0.00875121, Final residual = 1.78351e-05, No Iterations 1
DICPCG:  Solving for p_rgh, Initial residual = 0.212175, Final residual = 0.00191757, No Iterations 192
time step continuity errors : sum local = 36.524, global = 0.251168, cumulative = -11.3557
DILUPBiCGStab:  Solving for epsilon, Initial residual = 0, Final residual = 0, No Iterations 0
DILUPBiCGStab:  Solving for k, Initial residual = 0.00364442, Final residual = 1.88741e-05, No Iterations 1
ExecutionTime = 2.16 s  ClockTime = 3 s

Time = 35

DILUPBiCGStab:  Solving for Ux, Initial residual = 0.00474708, Final residual = 0.000254545, No Iterations 1
DILUPBiCGStab:  Solving for Uy, Initial residual = 0.00681837, Final residual = 0.000518516, No Iterations 1
DILUPBiCGStab:  Solving for Uz, Initial residual = 0.0193647, Final residual = 0.00136604, No Iterations 1
DILUPBiCGStab:  Solving for e, Initial residual = 0.00850568, Final residual = 1.81762e-05, No Iterations 1
DICPCG:  Solving for p_rgh, Initial residual = 0.187664, Final residual = 0.00172875, No Iterations 86
time step continuity errors : sum local = 33.9564, global = 1.89601, cumulative = -9.45971
DILUPBiCGStab:  Solving for epsilon, Initial residual = 0, Final residual = 0, No Iterations 0
DILUPBiCGStab:  Solving for k, Initial residual = 0.00349879, Final residual = 1.81e-05, No Iterations 1
ExecutionTime = 2.19 s  ClockTime = 3 s

Time = 36

DILUPBiCGStab:  Solving for Ux, Initial residual = 0.00444112, Final residual = 0.000248905, No Iterations 1
DILUPBiCGStab:  Solving for Uy, Initial residual = 0.00627407, Final residual = 0.000491206, No Iterations 1
DILUPBiCGStab:  Solving for Uz, Initial residual = 0.0191868, Final residual = 0.00133135, No Iterations 1
DILUPBiCGStab:  Solving for e, Initial residual = 0.00829253, Final residual = 1.90962e-05, No Iterations 1
DICPCG:  Solving for p_rgh, Initial residual = 0.177488, Final residual = 0.00151699, No Iterations 200
time step continuity errors : sum local = 29.3559, global = -0.0130579, cumulative = -9.47277
DILUPBiCGStab:  Solving for epsilon, Initial residual = 0, Final residual = 0, No Iterations 0
DILUPBiCGStab:  Solving for k, Initial residual = 0.00336156, Final residual = 1.75466e-05, No Iterations 1
ExecutionTime = 2.25 s  ClockTime = 3 s

Time = 37

DILUPBiCGStab:  Solving for Ux, Initial residual = 0.00388239, Final residual = 0.000254276, No Iterations 1
DILUPBiCGStab:  Solving for Uy, Initial residual = 0.0060607, Final residual = 0.000516477, No Iterations 1
DILUPBiCGStab:  Solving for Uz, Initial residual = 0.0193288, Final residual = 0.00135778, No Iterations 1
DILUPBiCGStab:  Solving for e, Initial residual = 0.00810853, Final residual = 2.00061e-05, No Iterations 1
DICPCG:  Solving for p_rgh, Initial residual = 0.180335, Final residual = 0.00157323, No Iterations 197
time step continuity errors : sum local = 27.8181, global = -0.155787, cumulative = -9.62855
DILUPBiCGStab:  Solving for epsilon, Initial residual = 0, Final residual = 0, No Iterations 0
DILUPBiCGStab:  Solving for k, Initial residual = 0.00323627, Final residual = 1.72536e-05, No Iterations 1
ExecutionTime = 2.31 s  ClockTime = 3 s

Time = 38

DILUPBiCGStab:  Solving for Ux, Initial residual = 0.00392157, Final residual = 0.000262439, No Iterations 1
DILUPBiCGStab:  Solving for Uy, Initial residual = 0.00609436, Final residual = 0.00056072, No Iterations 1
DILUPBiCGStab:  Solving for Uz, Initial residual = 0.0201893, Final residual = 0.00141286, No Iterations 1
DILUPBiCGStab:  Solving for e, Initial residual = 0.00791104, Final residual = 2.06764e-05, No Iterations 1
DICPCG:  Solving for p_rgh, Initial residual = 0.149431, Final residual = 0.00149048, No Iterations 190
time step continuity errors : sum local = 29.1934, global = 0.420003, cumulative = -9.20855
DILUPBiCGStab:  Solving for epsilon, Initial residual = 0, Final residual = 0, No Iterations 0
DILUPBiCGStab:  Solving for k, Initial residual = 0.00311974, Final residual = 1.7115e-05, No Iterations 1
ExecutionTime = 2.37 s  ClockTime = 3 s

Time = 39

DILUPBiCGStab:  Solving for Ux, Initial residual = 0.00375696, Final residual = 0.000264662, No Iterations 1
DILUPBiCGStab:  Solving for Uy, Initial residual = 0.00551105, Final residual = 0.000528321, No Iterations 1
DILUPBiCGStab:  Solving for Uz, Initial residual = 0.0205972, Final residual = 0.00143061, No Iterations 1
DILUPBiCGStab:  Solving for e, Initial residual = 0.00770365, Final residual = 2.11243e-05, No Iterations 1
DICPCG:  Solving for p_rgh, Initial residual = 0.154149, Final residual = 0.00138394, No Iterations 201
time step continuity errors : sum local = 25.1536, global = 0.00707782, cumulative = -9.20147
DILUPBiCGStab:  Solving for epsilon, Initial residual = 0, Final residual = 0, No Iterations 0
DILUPBiCGStab:  Solving for k, Initial residual = 0.00301449, Final residual = 1.70666e-05, No Iterations 1
ExecutionTime = 2.43 s  ClockTime = 3 s

Time = 40

DILUPBiCGStab:  Solving for Ux, Initial residual = 0.00372038, Final residual = 0.000265807, No Iterations 1
DILUPBiCGStab:  Solving for Uy, Initial residual = 0.00553979, Final residual = 0.000534995, No Iterations 1
DILUPBiCGStab:  Solving for Uz, Initial residual = 0.0204202, Final residual = 0.00138884, No Iterations 1
DILUPBiCGStab:  Solving for e, Initial residual = 0.00751712, Final residual = 2.15625e-05, No Iterations 1
DICPCG:  Solving for p_rgh, Initial residual = 0.165135, Final residual = 0.00160925, No Iterations 199
time step continuity errors : sum local = 26.4095, global = 0.144029, cumulative = -9.05744
DILUPBiCGStab:  Solving for epsilon, Initial residual = 0, Final residual = 0, No Iterations 0
DILUPBiCGStab:  Solving for k, Initial residual = 0.00291517, Final residual = 1.72168e-05, No Iterations 1
ExecutionTime = 2.48 s  ClockTime = 3 s

Time = 41

DILUPBiCGStab:  Solving for Ux, Initial residual = 0.00370028, Final residual = 0.000267227, No Iterations 1
DILUPBiCGStab:  Solving for Uy, Initial residual = 0.00547819, Final residual = 0.000536101, No Iterations 1
DILUPBiCGStab:  Solving for Uz, Initial residual = 0.0203101, Final residual = 0.00133541, No Iterations 1
DILUPBiCGStab:  Solving for e, Initial residual = 0.00734535, Final residual = 2.19929e-05, No Iterations 1
DICPCG:  Solving for p_rgh, Initial residual = 0.149902, Final residual = 0.00136882, No Iterations 199
time step continuity errors : sum local = 23.3979, global = -0.0544772, cumulative = -9.11192
DILUPBiCGStab:  Solving for epsilon, Initial residual = 0, Final residual = 0, No Iterations 0
DILUPBiCGStab:  Solving for k, Initial residual = 0.00282107, Final residual = 1.74279e-05, No Iterations 1
ExecutionTime = 2.54 s  ClockTime = 3 s

Time = 42

DILUPBiCGStab:  Solving for Ux, Initial residual = 0.00344926, Final residual = 0.000262672, No Iterations 1
DILUPBiCGStab:  Solving for Uy, Initial residual = 0.00534647, Final residual = 5.66091e-05, No Iterations 1
DILUPBiCGStab:  Solving for Uz, Initial residual = 0.0201304, Final residual = 0.00126995, No Iterations 1
DILUPBiCGStab:  Solving for e, Initial residual = 0.00719277, Final residual = 2.24722e-05, No Iterations 1
DICPCG:  Solving for p_rgh, Initial residual = 0.150622, Final residual = 0.00123906, No Iterations 199
time step continuity errors : sum local = 19.5249, global = -0.0461575, cumulative = -9.15808
DILUPBiCGStab:  Solving for epsilon, Initial residual = 0, Final residual = 0, No Iterations 0
DILUPBiCGStab:  Solving for k, Initial residual = 0.0027361, Final residual = 1.76904e-05, No Iterations 1
ExecutionTime = 2.6 s  ClockTime = 3 s

Time = 43

DILUPBiCGStab:  Solving for Ux, Initial residual = 0.00333065, Final residual = 0.000264187, No Iterations 1
DILUPBiCGStab:  Solving for Uy, Initial residual = 0.00542401, Final residual = 5.70869e-05, No Iterations 1
DILUPBiCGStab:  Solving for Uz, Initial residual = 0.0198779, Final residual = 0.00120935, No Iterations 1
DILUPBiCGStab:  Solving for e, Initial residual = 0.00705023, Final residual = 2.28355e-05, No Iterations 1
DICPCG:  Solving for p_rgh, Initial residual = 0.135145, Final residual = 0.00132487, No Iterations 45
time step continuity errors : sum local = 22.1032, global = 1.80424, cumulative = -7.35384
DILUPBiCGStab:  Solving for epsilon, Initial residual = 0, Final residual = 0, No Iterations 0
DILUPBiCGStab:  Solving for k, Initial residual = 0.0026552, Final residual = 1.80373e-05, No Iterations 1
ExecutionTime = 2.63 s  ClockTime = 3 s

Time = 44

DILUPBiCGStab:  Solving for Ux, Initial residual = 0.00325583, Final residual = 0.000265565, No Iterations 1
DILUPBiCGStab:  Solving for Uy, Initial residual = 0.00518472, Final residual = 5.48487e-05, No Iterations 1
DILUPBiCGStab:  Solving for Uz, Initial residual = 0.0197463, Final residual = 0.00117692, No Iterations 1
DILUPBiCGStab:  Solving for e, Initial residual = 0.00690392, Final residual = 2.30824e-05, No Iterations 1
DICPCG:  Solving for p_rgh, Initial residual = 0.131451, Final residual = 0.00118464, No Iterations 198
time step continuity errors : sum local = 19.6618, global = 0.120488, cumulative = -7.23335
DILUPBiCGStab:  Solving for epsilon, Initial residual = 0, Final residual = 0, No Iterations 0
DILUPBiCGStab:  Solving for k, Initial residual = 0.0025812, Final residual = 1.84722e-05, No Iterations 1
ExecutionTime = 2.69 s  ClockTime = 3 s

Time = 45

DILUPBiCGStab:  Solving for Ux, Initial residual = 0.00321907, Final residual = 0.000262523, No Iterations 1
DILUPBiCGStab:  Solving for Uy, Initial residual = 0.00505448, Final residual = 5.25767e-05, No Iterations 1
DILUPBiCGStab:  Solving for Uz, Initial residual = 0.0199012, Final residual = 0.00119074, No Iterations 1
DILUPBiCGStab:  Solving for e, Initial residual = 0.0067641, Final residual = 2.31958e-05, No Iterations 1
DICPCG:  Solving for p_rgh, Initial residual = 0.132161, Final residual = 0.00116632, No Iterations 187
time step continuity errors : sum local = 18.6162, global = 0.20538, cumulative = -7.02797
DILUPBiCGStab:  Solving for epsilon, Initial residual = 0, Final residual = 0, No Iterations 0
DILUPBiCGStab:  Solving for k, Initial residual = 0.00251154, Final residual = 1.90296e-05, No Iterations 1
ExecutionTime = 2.75 s  ClockTime = 3 s

Time = 46

DILUPBiCGStab:  Solving for Ux, Initial residual = 0.00323976, Final residual = 0.000264415, No Iterations 1
DILUPBiCGStab:  Solving for Uy, Initial residual = 0.00508542, Final residual = 5.23521e-05, No Iterations 1
DILUPBiCGStab:  Solving for Uz, Initial residual = 0.0196687, Final residual = 0.00122519, No Iterations 1
DILUPBiCGStab:  Solving for e, Initial residual = 0.00662967, Final residual = 2.32055e-05, No Iterations 1
DICPCG:  Solving for p_rgh, Initial residual = 0.136031, Final residual = 0.00133459, No Iterations 46
time step continuity errors : sum local = 20.4279, global = -1.60108, cumulative = -8.62905
DILUPBiCGStab:  Solving for epsilon, Initial residual = 0, Final residual = 0, No Iterations 0
DILUPBiCGStab:  Solving for k, Initial residual = 0.00244549, Final residual = 1.95114e-05, No Iterations 1
ExecutionTime = 2.78 s  ClockTime = 3 s

Time = 47

DILUPBiCGStab:  Solving for Ux, Initial residual = 0.00317892, Final residual = 0.000261589, No Iterations 1
DILUPBiCGStab:  Solving for Uy, Initial residual = 0.00506533, Final residual = 5.14085e-05, No Iterations 1
DILUPBiCGStab:  Solving for Uz, Initial residual = 0.0201468, Final residual = 0.00127576, No Iterations 1
DILUPBiCGStab:  Solving for e, Initial residual = 0.0065017, Final residual = 2.30365e-05, No Iterations 1
DICPCG:  Solving for p_rgh, Initial residual = 0.129481, Final residual = 0.00122162, No Iterations 67
time step continuity errors : sum local = 18.5196, global = 0.844164, cumulative = -7.78489
DILUPBiCGStab:  Solving for epsilon, Initial residual = 0, Final residual = 0, No Iterations 0
DILUPBiCGStab:  Solving for k, Initial residual = 0.00238364, Final residual = 2.00834e-05, No Iterations 1
ExecutionTime = 2.82 s  ClockTime = 3 s

Time = 48

DILUPBiCGStab:  Solving for Ux, Initial residual = 0.00306843, Final residual = 0.000258508, No Iterations 1
DILUPBiCGStab:  Solving for Uy, Initial residual = 0.00497728, Final residual = 5.08567e-05, No Iterations 1
DILUPBiCGStab:  Solving for Uz, Initial residual = 0.0198837, Final residual = 0.00121595, No Iterations 1
DILUPBiCGStab:  Solving for e, Initial residual = 0.00638433, Final residual = 2.27668e-05, No Iterations 1
DICPCG:  Solving for p_rgh, Initial residual = 0.121465, Final residual = 0.00118715, No Iterations 72
time step continuity errors : sum local = 17.7844, global = 1.34441, cumulative = -6.44048
DILUPBiCGStab:  Solving for epsilon, Initial residual = 0, Final residual = 0, No Iterations 0
DILUPBiCGStab:  Solving for k, Initial residual = 0.0023252, Final residual = 2.06708e-05, No Iterations 1
ExecutionTime = 2.85 s  ClockTime = 3 s

Time = 49

DILUPBiCGStab:  Solving for Ux, Initial residual = 0.003004, Final residual = 0.000254497, No Iterations 1
DILUPBiCGStab:  Solving for Uy, Initial residual = 0.00487427, Final residual = 5.0571e-05, No Iterations 1
DILUPBiCGStab:  Solving for Uz, Initial residual = 0.0198636, Final residual = 0.00118055, No Iterations 1
DILUPBiCGStab:  Solving for e, Initial residual = 0.00627386, Final residual = 2.2474e-05, No Iterations 1
DICPCG:  Solving for p_rgh, Initial residual = 0.116072, Final residual = 0.00113829, No Iterations 172
time step continuity errors : sum local = 16.9379, global = -0.115773, cumulative = -6.55625
DILUPBiCGStab:  Solving for epsilon, Initial residual = 0, Final residual = 0, No Iterations 0
DILUPBiCGStab:  Solving for k, Initial residual = 0.00227104, Final residual = 2.13033e-05, No Iterations 1
ExecutionTime = 2.91 s  ClockTime = 3 s

Time = 50

DILUPBiCGStab:  Solving for Ux, Initial residual = 0.00297149, Final residual = 0.000251927, No Iterations 1
DILUPBiCGStab:  Solving for Uy, Initial residual = 0.00483126, Final residual = 4.97326e-05, No Iterations 1
DILUPBiCGStab:  Solving for Uz, Initial residual = 0.0197621, Final residual = 0.00112982, No Iterations 1
DILUPBiCGStab:  Solving for e, Initial residual = 0.00616893, Final residual = 2.20648e-05, No Iterations 1
DICPCG:  Solving for p_rgh, Initial residual = 0.107021, Final residual = 0.00103806, No Iterations 49
time step continuity errors : sum local = 15.9299, global = 1.09075, cumulative = -5.4655
DILUPBiCGStab:  Solving for epsilon, Initial residual = 0, Final residual = 0, No Iterations 0
DILUPBiCGStab:  Solving for k, Initial residual = 0.00221826, Final residual = 2.19921e-05, No Iterations 1
ExecutionTime = 2.94 s  ClockTime = 3 s

Time = 51

DILUPBiCGStab:  Solving for Ux, Initial residual = 0.00295056, Final residual = 0.000251706, No Iterations 1
DILUPBiCGStab:  Solving for Uy, Initial residual = 0.00483463, Final residual = 4.89612e-05, No Iterations 1
DILUPBiCGStab:  Solving for Uz, Initial residual = 0.0197866, Final residual = 0.00120133, No Iterations 1
DILUPBiCGStab:  Solving for e, Initial residual = 0.00605827, Final residual = 2.1445e-05, No Iterations 1
DICPCG:  Solving for p_rgh, Initial residual = 0.101619, Final residual = 0.00100014, No Iterations 47
time step continuity errors : sum local = 15.296, global = -0.382748, cumulative = -5.84825
DILUPBiCGStab:  Solving for epsilon, Initial residual = 0, Final residual = 0, No Iterations 0
DILUPBiCGStab:  Solving for k, Initial residual = 0.0021687, Final residual = 2.26974e-05, No Iterations 1
ExecutionTime = 2.97 s  ClockTime = 3 s

Time = 52

DILUPBiCGStab:  Solving for Ux, Initial residual = 0.00293169, Final residual = 0.000252251, No Iterations 1
DILUPBiCGStab:  Solving for Uy, Initial residual = 0.00482715, Final residual = 4.84849e-05, No Iterations 1
DILUPBiCGStab:  Solving for Uz, Initial residual = 0.0199908, Final residual = 0.00117616, No Iterations 1
DILUPBiCGStab:  Solving for e, Initial residual = 0.00595661, Final residual = 2.06858e-05, No Iterations 1
DICPCG:  Solving for p_rgh, Initial residual = 0.101387, Final residual = 0.000928256, No Iterations 104
time step continuity errors : sum local = 14.1451, global = -0.842441, cumulative = -6.69069
DILUPBiCGStab:  Solving for epsilon, Initial residual = 0, Final residual = 0, No Iterations 0
DILUPBiCGStab:  Solving for k, Initial residual = 0.0021212, Final residual = 2.3468e-05, No Iterations 1
ExecutionTime = 3.01 s  ClockTime = 3 s

Time = 53

DILUPBiCGStab:  Solving for Ux, Initial residual = 0.00290341, Final residual = 0.000250142, No Iterations 1
DILUPBiCGStab:  Solving for Uy, Initial residual = 0.0047786, Final residual = 4.80058e-05, No Iterations 1
DILUPBiCGStab:  Solving for Uz, Initial residual = 0.0194745, Final residual = 0.0011235, No Iterations 1
DILUPBiCGStab:  Solving for e, Initial residual = 0.00586413, Final residual = 1.98641e-05, No Iterations 1
DICPCG:  Solving for p_rgh, Initial residual = 0.0974693, Final residual = 0.000958924, No Iterations 174
time step continuity errors : sum local = 14.4149, global = -0.168145, cumulative = -6.85884
DILUPBiCGStab:  Solving for epsilon, Initial residual = 0, Final residual = 0, No Iterations 0
DILUPBiCGStab:  Solving for k, Initial residual = 0.00207799, Final residual = 2.43372e-05, No Iterations 1
ExecutionTime = 3.07 s  ClockTime = 4 s

Time = 54

DILUPBiCGStab:  Solving for Ux, Initial residual = 0.00285921, Final residual = 0.000247698, No Iterations 1
DILUPBiCGStab:  Solving for Uy, Initial residual = 0.00466407, Final residual = 4.68319e-05, No Iterations 1
DILUPBiCGStab:  Solving for Uz, Initial residual = 0.0198863, Final residual = 0.00120509, No Iterations 1
DILUPBiCGStab:  Solving for e, Initial residual = 0.0057688, Final residual = 1.89129e-05, No Iterations 1
DICPCG:  Solving for p_rgh, Initial residual = 0.109272, Final residual = 0.000968575, No Iterations 46
time step continuity errors : sum local = 14.1374, global = -1.38026, cumulative = -8.2391
DILUPBiCGStab:  Solving for epsilon, Initial residual = 0, Final residual = 0, No Iterations 0
DILUPBiCGStab:  Solving for k, Initial residual = 0.00203545, Final residual = 2.52799e-05, No Iterations 1
ExecutionTime = 3.1 s  ClockTime = 4 s

Time = 55

DILUPBiCGStab:  Solving for Ux, Initial residual = 0.00282979, Final residual = 0.00024401, No Iterations 1
DILUPBiCGStab:  Solving for Uy, Initial residual = 0.00464176, Final residual = 4.52643e-05, No Iterations 1
DILUPBiCGStab:  Solving for Uz, Initial residual = 0.0197657, Final residual = 0.00108748, No Iterations 1
DILUPBiCGStab:  Solving for e, Initial residual = 0.00568418, Final residual = 1.79874e-05, No Iterations 1
DICPCG:  Solving for p_rgh, Initial residual = 0.0988323, Final residual = 0.000980988, No Iterations 106
time step continuity errors : sum local = 14.0308, global = -0.327778, cumulative = -8.56688
DILUPBiCGStab:  Solving for epsilon, Initial residual = 0, Final residual = 0, No Iterations 0
DILUPBiCGStab:  Solving for k, Initial residual = 0.0019945, Final residual = 2.63502e-05, No Iterations 1
ExecutionTime = 3.14 s  ClockTime = 4 s

Time = 56

DILUPBiCGStab:  Solving for Ux, Initial residual = 0.00284525, Final residual = 0.000245331, No Iterations 1
DILUPBiCGStab:  Solving for Uy, Initial residual = 0.00465667, Final residual = 4.37083e-05, No Iterations 1
DILUPBiCGStab:  Solving for Uz, Initial residual = 0.0196305, Final residual = 0.00113169, No Iterations 1
DILUPBiCGStab:  Solving for e, Initial residual = 0.00559888, Final residual = 1.69566e-05, No Iterations 1
DICPCG:  Solving for p_rgh, Initial residual = 0.0890939, Final residual = 0.000841812, No Iterations 55
time step continuity errors : sum local = 11.8273, global = 0.826453, cumulative = -7.74042
DILUPBiCGStab:  Solving for epsilon, Initial residual = 0, Final residual = 0, No Iterations 0
DILUPBiCGStab:  Solving for k, Initial residual = 0.00195542, Final residual = 2.75782e-05, No Iterations 1
ExecutionTime = 3.17 s  ClockTime = 4 s

Time = 57

DILUPBiCGStab:  Solving for Ux, Initial residual = 0.00280843, Final residual = 0.000242298, No Iterations 1
DILUPBiCGStab:  Solving for Uy, Initial residual = 0.00461367, Final residual = 4.22946e-05, No Iterations 1
DILUPBiCGStab:  Solving for Uz, Initial residual = 0.0191547, Final residual = 0.00100672, No Iterations 1
DILUPBiCGStab:  Solving for e, Initial residual = 0.00551209, Final residual = 1.58628e-05, No Iterations 1
DICPCG:  Solving for p_rgh, Initial residual = 0.0892303, Final residual = 0.000891491, No Iterations 165
time step continuity errors : sum local = 12.4636, global = 0.130061, cumulative = -7.61036
DILUPBiCGStab:  Solving for epsilon, Initial residual = 0, Final residual = 0, No Iterations 0
DILUPBiCGStab:  Solving for k, Initial residual = 0.00191881, Final residual = 2.8927e-05, No Iterations 1
ExecutionTime = 3.23 s  ClockTime = 4 s

Time = 58

DILUPBiCGStab:  Solving for Ux, Initial residual = 0.00274772, Final residual = 0.000237116, No Iterations 1
DILUPBiCGStab:  Solving for Uy, Initial residual = 0.00448294, Final residual = 4.14352e-05, No Iterations 1
DILUPBiCGStab:  Solving for Uz, Initial residual = 0.0189091, Final residual = 0.000954866, No Iterations 1
DILUPBiCGStab:  Solving for e, Initial residual = 0.00543212, Final residual = 1.4693e-05, No Iterations 1
DICPCG:  Solving for p_rgh, Initial residual = 0.0842227, Final residual = 0.000839463, No Iterations 122
time step continuity errors : sum local = 11.8071, global = 1.40736, cumulative = -6.203
DILUPBiCGStab:  Solving for epsilon, Initial residual = 0, Final residual = 0, No Iterations 0
DILUPBiCGStab:  Solving for k, Initial residual = 0.00188281, Final residual = 3.03579e-05, No Iterations 1
ExecutionTime = 3.27 s  ClockTime = 4 s

Time = 59

DILUPBiCGStab:  Solving for Ux, Initial residual = 0.00272394, Final residual = 0.000231088, No Iterations 1
DILUPBiCGStab:  Solving for Uy, Initial residual = 0.00435361, Final residual = 4.00727e-05, No Iterations 1
DILUPBiCGStab:  Solving for Uz, Initial residual = 0.0190714, Final residual = 0.00102361, No Iterations 1
DILUPBiCGStab:  Solving for e, Initial residual = 0.00535692, Final residual = 1.35528e-05, No Iterations 1
DICPCG:  Solving for p_rgh, Initial residual = 0.0768715, Final residual = 0.000749398, No Iterations 120
time step continuity errors : sum local = 10.47, global = 0.737775, cumulative = -5.46523
DILUPBiCGStab:  Solving for epsilon, Initial residual = 0, Final residual = 0, No Iterations 0
DILUPBiCGStab:  Solving for k, Initial residual = 0.0018473, Final residual = 3.18883e-05, No Iterations 1
ExecutionTime = 3.31 s  ClockTime = 4 s

Time = 60

DILUPBiCGStab:  Solving for Ux, Initial residual = 0.00271318, Final residual = 0.000225046, No Iterations 1
DILUPBiCGStab:  Solving for Uy, Initial residual = 0.00436764, Final residual = 3.99723e-05, No Iterations 1
DILUPBiCGStab:  Solving for Uz, Initial residual = 0.0189191, Final residual = 0.00105836, No Iterations 1
DILUPBiCGStab:  Solving for e, Initial residual = 0.00528717, Final residual = 1.24269e-05, No Iterations 1
DICPCG:  Solving for p_rgh, Initial residual = 0.0749133, Final residual = 0.000734813, No Iterations 90
time step continuity errors : sum local = 10.1732, global = -0.470587, cumulative = -5.93581
DILUPBiCGStab:  Solving for epsilon, Initial residual = 0, Final residual = 0, No Iterations 0
DILUPBiCGStab:  Solving for k, Initial residual = 0.00181254, Final residual = 3.37042e-05, No Iterations 1
ExecutionTime = 3.35 s  ClockTime = 4 s

Time = 61

DILUPBiCGStab:  Solving for Ux, Initial residual = 0.00269041, Final residual = 0.000221052, No Iterations 1
DILUPBiCGStab:  Solving for Uy, Initial residual = 0.0044368, Final residual = 3.83462e-05, No Iterations 1
DILUPBiCGStab:  Solving for Uz, Initial residual = 0.0196414, Final residual = 0.00107844, No Iterations 1
DILUPBiCGStab:  Solving for e, Initial residual = 0.00521528, Final residual = 1.12969e-05, No Iterations 1
DICPCG:  Solving for p_rgh, Initial residual = 0.079596, Final residual = 0.00068277, No Iterations 182
time step continuity errors : sum local = 9.40539, global = -0.154952, cumulative = -6.09077
DILUPBiCGStab:  Solving for epsilon, Initial residual = 0, Final residual = 0, No Iterations 0
DILUPBiCGStab:  Solving for k, Initial residual = 0.00177857, Final residual = 3.59621e-05, No Iterations 1
ExecutionTime = 3.41 s  ClockTime = 4 s

Time = 62

DILUPBiCGStab:  Solving for Ux, Initial residual = 0.00265487, Final residual = 0.0002188, No Iterations 1
DILUPBiCGStab:  Solving for Uy, Initial residual = 0.00441962, Final residual = 3.5445e-05, No Iterations 1
DILUPBiCGStab:  Solving for Uz, Initial residual = 0.0194548, Final residual = 0.0010916, No Iterations 1
DILUPBiCGStab:  Solving for e, Initial residual = 0.0051414, Final residual = 1.01836e-05, No Iterations 1
DICPCG:  Solving for p_rgh, Initial residual = 0.0797396, Final residual = 0.000744504, No Iterations 52
time step continuity errors : sum local = 9.96659, global = -0.431871, cumulative = -6.52264
DILUPBiCGStab:  Solving for epsilon, Initial residual = 0, Final residual = 0, No Iterations 0
DILUPBiCGStab:  Solving for k, Initial residual = 0.0017459, Final residual = 3.83727e-05, No Iterations 1
ExecutionTime = 3.44 s  ClockTime = 4 s

Time = 63

DILUPBiCGStab:  Solving for Ux, Initial residual = 0.00260698, Final residual = 0.000213196, No Iterations 1
DILUPBiCGStab:  Solving for Uy, Initial residual = 0.00432608, Final residual = 3.34961e-05, No Iterations 1
DILUPBiCGStab:  Solving for Uz, Initial residual = 0.0195286, Final residual = 0.00120401, No Iterations 1
DILUPBiCGStab:  Solving for e, Initial residual = 0.00507412, Final residual = 9.16596e-06, No Iterations 1
DICPCG:  Solving for p_rgh, Initial residual = 0.0744347, Final residual = 0.000644062, No Iterations 199
time step continuity errors : sum local = 8.55031, global = 0.00365347, cumulative = -6.51898
DILUPBiCGStab:  Solving for epsilon, Initial residual = 0, Final residual = 0, No Iterations 0
DILUPBiCGStab:  Solving for k, Initial residual = 0.00171501, Final residual = 4.09161e-05, No Iterations 1
ExecutionTime = 3.5 s  ClockTime = 4 s

Time = 64

DILUPBiCGStab:  Solving for Ux, Initial residual = 0.00258239, Final residual = 0.000209055, No Iterations 1
DILUPBiCGStab:  Solving for Uy, Initial residual = 0.00419463, Final residual = 3.42377e-05, No Iterations 1
DILUPBiCGStab:  Solving for Uz, Initial residual = 0.0199036, Final residual = 0.00121335, No Iterations 1
DILUPBiCGStab:  Solving for e, Initial residual = 0.00500944, Final residual = 8.24705e-06, No Iterations 1
DICPCG:  Solving for p_rgh, Initial residual = 0.064291, Final residual = 0.000572525, No Iterations 59
time step continuity errors : sum local = 7.65757, global = 0.549879, cumulative = -5.9691
DILUPBiCGStab:  Solving for epsilon, Initial residual = 0, Final residual = 0, No Iterations 0
DILUPBiCGStab:  Solving for k, Initial residual = 0.0016844, Final residual = 4.40002e-05, No Iterations 1
ExecutionTime = 3.53 s  ClockTime = 4 s

Time = 65

DILUPBiCGStab:  Solving for Ux, Initial residual = 0.00256844, Final residual = 0.000207014, No Iterations 1
DILUPBiCGStab:  Solving for Uy, Initial residual = 0.00413788, Final residual = 3.08952e-05, No Iterations 1
DILUPBiCGStab:  Solving for Uz, Initial residual = 0.0197474, Final residual = 0.00110781, No Iterations 1
DILUPBiCGStab:  Solving for e, Initial residual = 0.00494822, Final residual = 7.43382e-06, No Iterations 1
DICPCG:  Solving for p_rgh, Initial residual = 0.0657826, Final residual = 0.000623414, No Iterations 182
time step continuity errors : sum local = 8.29784, global = 0.155593, cumulative = -5.81351
DILUPBiCGStab:  Solving for epsilon, Initial residual = 0, Final residual = 0, No Iterations 0
DILUPBiCGStab:  Solving for k, Initial residual = 0.00165554, Final residual = 4.76152e-05, No Iterations 1
ExecutionTime = 3.59 s  ClockTime = 4 s

Time = 66

DILUPBiCGStab:  Solving for Ux, Initial residual = 0.00253979, Final residual = 0.000203085, No Iterations 1
DILUPBiCGStab:  Solving for Uy, Initial residual = 0.00417663, Final residual = 3.07325e-05, No Iterations 1
DILUPBiCGStab:  Solving for Uz, Initial residual = 0.0194475, Final residual = 0.00115541, No Iterations 1
DILUPBiCGStab:  Solving for e, Initial residual = 0.00488824, Final residual = 6.7313e-06, No Iterations 1
DICPCG:  Solving for p_rgh, Initial residual = 0.0677738, Final residual = 0.000587093, No Iterations 123
time step continuity errors : sum local = 7.66994, global = 0.431797, cumulative = -5.38171
DILUPBiCGStab:  Solving for epsilon, Initial residual = 0, Final residual = 0, No Iterations 0
DILUPBiCGStab:  Solving for k, Initial residual = 0.00162707, Final residual = 5.17901e-05, No Iterations 1
ExecutionTime = 3.64 s  ClockTime = 4 s

Time = 67

DILUPBiCGStab:  Solving for Ux, Initial residual = 0.0025235, Final residual = 0.000201343, No Iterations 1
DILUPBiCGStab:  Solving for Uy, Initial residual = 0.00417426, Final residual = 0.000414047, No Iterations 1
DILUPBiCGStab:  Solving for Uz, Initial residual = 0.0195256, Final residual = 0.00113503, No Iterations 1
DILUPBiCGStab:  Solving for e, Initial residual = 0.00482949, Final residual = 6.09952e-06, No Iterations 1
DICPCG:  Solving for p_rgh, Initial residual = 0.065825, Final residual = 0.000608034, No Iterations 123
time step continuity errors : sum local = 7.92401, global = -0.423692, cumulative = -5.80541
DILUPBiCGStab:  Solving for epsilon, Initial residual = 0, Final residual = 0, No Iterations 0
DILUPBiCGStab:  Solving for k, Initial residual = 0.00160009, Final residual = 5.65754e-05, No Iterations 1
ExecutionTime = 3.68 s  ClockTime = 4 s

Time = 68

DILUPBiCGStab:  Solving for Ux, Initial residual = 0.00251146, Final residual = 0.00019821, No Iterations 1
DILUPBiCGStab:  Solving for Uy, Initial residual = 0.00407226, Final residual = 2.94862e-05, No Iterations 1
DILUPBiCGStab:  Solving for Uz, Initial residual = 0.0195808, Final residual = 0.00108137, No Iterations 1
DILUPBiCGStab:  Solving for e, Initial residual = 0.00477148, Final residual = 5.55633e-06, No Iterations 1
DICPCG:  Solving for p_rgh, Initial residual = 0.0608685, Final residual = 0.000590096, No Iterations 181
time step continuity errors : sum local = 7.69579, global = 0.388816, cumulative = -5.41659
DILUPBiCGStab:  Solving for epsilon, Initial residual = 0, Final residual = 0, No Iterations 0
DILUPBiCGStab:  Solving for k, Initial residual = 0.00157438, Final residual = 6.227e-05, No Iterations 1
ExecutionTime = 3.74 s  ClockTime = 4 s

Time = 69

DILUPBiCGStab:  Solving for Ux, Initial residual = 0.0024844, Final residual = 0.000197833, No Iterations 1
DILUPBiCGStab:  Solving for Uy, Initial residual = 0.00400017, Final residual = 0.000396568, No Iterations 1
DILUPBiCGStab:  Solving for Uz, Initial residual = 0.0196328, Final residual = 0.00100564, No Iterations 1
DILUPBiCGStab:  Solving for e, Initial residual = 0.0047143, Final residual = 5.09829e-06, No Iterations 1
DICPCG:  Solving for p_rgh, Initial residual = 0.0588232, Final residual = 0.000556677, No Iterations 164
time step continuity errors : sum local = 7.50065, global = -0.35315, cumulative = -5.76974
DILUPBiCGStab:  Solving for epsilon, Initial residual = 0, Final residual = 0, No Iterations 0
DILUPBiCGStab:  Solving for k, Initial residual = 0.0015502, Final residual = 6.83838e-05, No Iterations 1
ExecutionTime = 3.8 s  ClockTime = 4 s

Time = 70

DILUPBiCGStab:  Solving for Ux, Initial residual = 0.00246244, Final residual = 0.000196655, No Iterations 1
DILUPBiCGStab:  Solving for Uy, Initial residual = 0.00392999, Final residual = 2.78086e-05, No Iterations 1
DILUPBiCGStab:  Solving for Uz, Initial residual = 0.0197308, Final residual = 0.00105527, No Iterations 1
DILUPBiCGStab:  Solving for e, Initial residual = 0.00466108, Final residual = 4.70997e-06, No Iterations 1
DICPCG:  Solving for p_rgh, Initial residual = 0.0557301, Final residual = 0.000544378, No Iterations 56
time step continuity errors : sum local = 7.45448, global = 0.250448, cumulative = -5.51929
DILUPBiCGStab:  Solving for epsilon, Initial residual = 0, Final residual = 0, No Iterations 0
DILUPBiCGStab:  Solving for k, Initial residual = 0.00152569, Final residual = 7.52187e-05, No Iterations 1
ExecutionTime = 3.83 s  ClockTime = 4 s

Time = 71

DILUPBiCGStab:  Solving for Ux, Initial residual = 0.00242293, Final residual = 0.000196742, No Iterations 1
DILUPBiCGStab:  Solving for Uy, Initial residual = 0.00395153, Final residual = 0.00039025, No Iterations 1
DILUPBiCGStab:  Solving for Uz, Initial residual = 0.0196504, Final residual = 0.00106959, No Iterations 1
DILUPBiCGStab:  Solving for e, Initial residual = 0.00460911, Final residual = 4.40104e-06, No Iterations 1
DICPCG:  Solving for p_rgh, Initial residual = 0.0563147, Final residual = 0.000530294, No Iterations 197
time step continuity errors : sum local = 7.20659, global = 0.0173459, cumulative = -5.50195
DILUPBiCGStab:  Solving for epsilon, Initial residual = 0, Final residual = 0, No Iterations 0
DILUPBiCGStab:  Solving for k, Initial residual = 0.00150254, Final residual = 8.25531e-05, No Iterations 1
ExecutionTime = 3.89 s  ClockTime = 4 s

Time = 72

DILUPBiCGStab:  Solving for Ux, Initial residual = 0.00237924, Final residual = 0.000191404, No Iterations 1
DILUPBiCGStab:  Solving for Uy, Initial residual = 0.00391874, Final residual = 0.000385508, No Iterations 1
DILUPBiCGStab:  Solving for Uz, Initial residual = 0.0195344, Final residual = 0.00102966, No Iterations 1
DILUPBiCGStab:  Solving for e, Initial residual = 0.00455905, Final residual = 4.13108e-06, No Iterations 1
DICPCG:  Solving for p_rgh, Initial residual = 0.0575641, Final residual = 0.000573917, No Iterations 87
time step continuity errors : sum local = 7.57334, global = 0.318682, cumulative = -5.18326
DILUPBiCGStab:  Solving for epsilon, Initial residual = 0, Final residual = 0, No Iterations 0
DILUPBiCGStab:  Solving for k, Initial residual = 0.00147946, Final residual = 9.01917e-05, No Iterations 1
ExecutionTime = 3.93 s  ClockTime = 4 s

Time = 73

DILUPBiCGStab:  Solving for Ux, Initial residual = 0.00235822, Final residual = 0.000187727, No Iterations 1
DILUPBiCGStab:  Solving for Uy, Initial residual = 0.0038315, Final residual = 0.000377441, No Iterations 1
DILUPBiCGStab:  Solving for Uz, Initial residual = 0.0195458, Final residual = 0.00106946, No Iterations 1
DILUPBiCGStab:  Solving for e, Initial residual = 0.0045085, Final residual = 3.86927e-06, No Iterations 1
DICPCG:  Solving for p_rgh, Initial residual = 0.0561054, Final residual = 0.000451465, No Iterations 53
time step continuity errors : sum local = 5.9398, global = -0.479445, cumulative = -5.66271
DILUPBiCGStab:  Solving for epsilon, Initial residual = 0, Final residual = 0, No Iterations 0
DILUPBiCGStab:  Solving for k, Initial residual = 0.00145581, Final residual = 9.79382e-05, No Iterations 1
ExecutionTime = 3.96 s  ClockTime = 4 s

Time = 74

DILUPBiCGStab:  Solving for Ux, Initial residual = 0.00232834, Final residual = 0.000184633, No Iterations 1
DILUPBiCGStab:  Solving for Uy, Initial residual = 0.00372159, Final residual = 0.000369425, No Iterations 1
DILUPBiCGStab:  Solving for Uz, Initial residual = 0.0195892, Final residual = 0.00110689, No Iterations 1
DILUPBiCGStab:  Solving for e, Initial residual = 0.00445963, Final residual = 3.64491e-06, No Iterations 1
DICPCG:  Solving for p_rgh, Initial residual = 0.055182, Final residual = 0.000500653, No Iterations 170
time step continuity errors : sum local = 6.55624, global = 0.127847, cumulative = -5.53486
DILUPBiCGStab:  Solving for epsilon, Initial residual = 0, Final residual = 0, No Iterations 0
DILUPBiCGStab:  Solving for k, Initial residual = 0.00143303, Final residual = 0.000105567, No Iterations 1
ExecutionTime = 4.02 s  ClockTime = 4 s

Time = 75

DILUPBiCGStab:  Solving for Ux, Initial residual = 0.00230472, Final residual = 0.00018283, No Iterations 1
DILUPBiCGStab:  Solving for Uy, Initial residual = 0.00361886, Final residual = 0.000360093, No Iterations 1
DILUPBiCGStab:  Solving for Uz, Initial residual = 0.0195237, Final residual = 0.00114601, No Iterations 1
DILUPBiCGStab:  Solving for e, Initial residual = 0.00441204, Final residual = 3.44049e-06, No Iterations 1
DICPCG:  Solving for p_rgh, Initial residual = 0.0530442, Final residual = 0.000478003, No Iterations 130
time step continuity errors : sum local = 6.32223, global = -0.821479, cumulative = -6.35634
DILUPBiCGStab:  Solving for epsilon, Initial residual = 0, Final residual = 0, No Iterations 0
DILUPBiCGStab:  Solving for k, Initial residual = 0.00141028, Final residual = 0.000112715, No Iterations 1
ExecutionTime = 4.06 s  ClockTime = 5 s

Time = 76

DILUPBiCGStab:  Solving for Ux, Initial residual = 0.00228499, Final residual = 0.000181, No Iterations 1
DILUPBiCGStab:  Solving for Uy, Initial residual = 0.00354306, Final residual = 0.000350841, No Iterations 1
DILUPBiCGStab:  Solving for Uz, Initial residual = 0.01979, Final residual = 0.00116256, No Iterations 1
DILUPBiCGStab:  Solving for e, Initial residual = 0.00436653, Final residual = 3.25406e-06, No Iterations 1
DICPCG:  Solving for p_rgh, Initial residual = 0.0520222, Final residual = 0.000503648, No Iterations 53
time step continuity errors : sum local = 6.65924, global = -0.315984, cumulative = -6.67232
DILUPBiCGStab:  Solving for epsilon, Initial residual = 0, Final residual = 0, No Iterations 0
DILUPBiCGStab:  Solving for k, Initial residual = 0.00138705, Final residual = 0.000118948, No Iterations 1
ExecutionTime = 4.09 s  ClockTime = 5 s

Time = 77

DILUPBiCGStab:  Solving for Ux, Initial residual = 0.0022691, Final residual = 0.0001783, No Iterations 1
DILUPBiCGStab:  Solving for Uy, Initial residual = 0.00347953, Final residual = 0.000340576, No Iterations 1
DILUPBiCGStab:  Solving for Uz, Initial residual = 0.0199102, Final residual = 0.00113928, No Iterations 1
DILUPBiCGStab:  Solving for e, Initial residual = 0.00432208, Final residual = 3.08428e-06, No Iterations 1
DICPCG:  Solving for p_rgh, Initial residual = 0.0512169, Final residual = 0.000492231, No Iterations 70
time step continuity errors : sum local = 6.48816, global = -0.0423265, cumulative = -6.71465
DILUPBiCGStab:  Solving for epsilon, Initial residual = 0, Final residual = 0, No Iterations 0
DILUPBiCGStab:  Solving for k, Initial residual = 0.00136399, Final residual = 0.000123877, No Iterations 1
ExecutionTime = 4.13 s  ClockTime = 5 s

Time = 78

DILUPBiCGStab:  Solving for Ux, Initial residual = 0.00227376, Final residual = 0.000176352, No Iterations 1
DILUPBiCGStab:  Solving for Uy, Initial residual = 0.00342017, Final residual = 0.000329196, No Iterations 1
DILUPBiCGStab:  Solving for Uz, Initial residual = 0.0199716, Final residual = 0.00116323, No Iterations 1
DILUPBiCGStab:  Solving for e, Initial residual = 0.00427883, Final residual = 2.92237e-06, No Iterations 1
DICPCG:  Solving for p_rgh, Initial residual = 0.0499699, Final residual = 0.000474879, No Iterations 50
time step continuity errors : sum local = 6.2381, global = 0.345473, cumulative = -6.36918
DILUPBiCGStab:  Solving for epsilon, Initial residual = 0, Final residual = 0, No Iterations 0
DILUPBiCGStab:  Solving for k, Initial residual = 0.00134157, Final residual = 0.000127203, No Iterations 1
ExecutionTime = 4.16 s  ClockTime = 5 s

Time = 79

DILUPBiCGStab:  Solving for Ux, Initial residual = 0.00227043, Final residual = 0.000173985, No Iterations 1
DILUPBiCGStab:  Solving for Uy, Initial residual = 0.00335741, Final residual = 0.00032064, No Iterations 1
DILUPBiCGStab:  Solving for Uz, Initial residual = 0.0202183, Final residual = 0.00117116, No Iterations 1
DILUPBiCGStab:  Solving for e, Initial residual = 0.00423526, Final residual = 2.76748e-06, No Iterations 1
DICPCG:  Solving for p_rgh, Initial residual = 0.0496326, Final residual = 0.000495023, No Iterations 169
time step continuity errors : sum local = 6.49124, global = 0.141576, cumulative = -6.2276
DILUPBiCGStab:  Solving for epsilon, Initial residual = 0, Final residual = 0, No Iterations 0
DILUPBiCGStab:  Solving for k, Initial residual = 0.00131997, Final residual = 0.000128708, No Iterations 1
ExecutionTime = 4.22 s  ClockTime = 5 s

Time = 80

DILUPBiCGStab:  Solving for Ux, Initial residual = 0.00224084, Final residual = 0.000169253, No Iterations 1
DILUPBiCGStab:  Solving for Uy, Initial residual = 0.0033078, Final residual = 0.000312967, No Iterations 1
DILUPBiCGStab:  Solving for Uz, Initial residual = 0.0205697, Final residual = 0.00117078, No Iterations 1
DILUPBiCGStab:  Solving for e, Initial residual = 0.00419378, Final residual = 2.63918e-06, No Iterations 1
DICPCG:  Solving for p_rgh, Initial residual = 0.0513296, Final residual = 0.00050016, No Iterations 49
time step continuity errors : sum local = 6.41896, global = 0.425869, cumulative = -5.80173
DILUPBiCGStab:  Solving for epsilon, Initial residual = 0, Final residual = 0, No Iterations 0
DILUPBiCGStab:  Solving for k, Initial residual = 0.00129897, Final residual = 0.000128206, No Iterations 1
ExecutionTime = 4.25 s  ClockTime = 5 s

Time = 81

DILUPBiCGStab:  Solving for Ux, Initial residual = 0.00224775, Final residual = 0.000167915, No Iterations 1
DILUPBiCGStab:  Solving for Uy, Initial residual = 0.00323885, Final residual = 0.000300979, No Iterations 1
DILUPBiCGStab:  Solving for Uz, Initial residual = 0.0209477, Final residual = 0.00117038, No Iterations 1
DILUPBiCGStab:  Solving for e, Initial residual = 0.00415303, Final residual = 2.49792e-06, No Iterations 1
DICPCG:  Solving for p_rgh, Initial residual = 0.0539267, Final residual = 0.000516379, No Iterations 78
time step continuity errors : sum local = 6.58679, global = -0.284963, cumulative = -6.0867
DILUPBiCGStab:  Solving for epsilon, Initial residual = 0, Final residual = 0, No Iterations 0
DILUPBiCGStab:  Solving for k, Initial residual = 0.0012781, Final residual = 0.000125639, No Iterations 1
ExecutionTime = 4.29 s  ClockTime = 5 s

Time = 82

DILUPBiCGStab:  Solving for Ux, Initial residual = 0.00225517, Final residual = 0.000166794, No Iterations 1
DILUPBiCGStab:  Solving for Uy, Initial residual = 0.00319543, Final residual = 0.000291464, No Iterations 1
DILUPBiCGStab:  Solving for Uz, Initial residual = 0.0211325, Final residual = 0.00112509, No Iterations 1
DILUPBiCGStab:  Solving for e, Initial residual = 0.00411403, Final residual = 2.37976e-06, No Iterations 1
DICPCG:  Solving for p_rgh, Initial residual = 0.0544076, Final residual = 0.000456725, No Iterations 164
time step continuity errors : sum local = 5.80836, global = 0.19648, cumulative = -5.89022
DILUPBiCGStab:  Solving for epsilon, Initial residual = 0, Final residual = 0, No Iterations 0
DILUPBiCGStab:  Solving for k, Initial residual = 0.00125897, Final residual = 0.000121424, No Iterations 1
ExecutionTime = 4.36 s  ClockTime = 5 s

Time = 83

DILUPBiCGStab:  Solving for Ux, Initial residual = 0.00225929, Final residual = 0.000165899, No Iterations 1
DILUPBiCGStab:  Solving for Uy, Initial residual = 0.00319245, Final residual = 0.000282779, No Iterations 1
DILUPBiCGStab:  Solving for Uz, Initial residual = 0.0207534, Final residual = 0.00111689, No Iterations 1
DILUPBiCGStab:  Solving for e, Initial residual = 0.00407498, Final residual = 2.25471e-06, No Iterations 1
DICPCG:  Solving for p_rgh, Initial residual = 0.0492957, Final residual = 0.000484228, No Iterations 45
time step continuity errors : sum local = 6.3095, global = -0.151767, cumulative = -6.04198
DILUPBiCGStab:  Solving for epsilon, Initial residual = 0, Final residual = 0, No Iterations 0
DILUPBiCGStab:  Solving for k, Initial residual = 0.00124082, Final residual = 0.000115609, No Iterations 1
ExecutionTime = 4.39 s  ClockTime = 5 s

Time = 84

DILUPBiCGStab:  Solving for Ux, Initial residual = 0.00226406, Final residual = 0.000164133, No Iterations 1
DILUPBiCGStab:  Solving for Uy, Initial residual = 0.00313897, Final residual = 0.000273277, No Iterations 1
DILUPBiCGStab:  Solving for Uz, Initial residual = 0.0208866, Final residual = 0.00110388, No Iterations 1
DILUPBiCGStab:  Solving for e, Initial residual = 0.0040369, Final residual = 2.14104e-06, No Iterations 1
DICPCG:  Solving for p_rgh, Initial residual = 0.0483322, Final residual = 0.000480191, No Iterations 70
time step continuity errors : sum local = 6.2419, global = 0.712949, cumulative = -5.32903
DILUPBiCGStab:  Solving for epsilon, Initial residual = 0, Final residual = 0, No Iterations 0
DILUPBiCGStab:  Solving for k, Initial residual = 0.00122387, Final residual = 0.000108585, No Iterations 1
ExecutionTime = 4.42 s  ClockTime = 5 s

Time = 85

DILUPBiCGStab:  Solving for Ux, Initial residual = 0.00227963, Final residual = 0.000163071, No Iterations 1
DILUPBiCGStab:  Solving for Uy, Initial residual = 0.00308865, Final residual = 0.000265514, No Iterations 1
DILUPBiCGStab:  Solving for Uz, Initial residual = 0.021062, Final residual = 0.00114051, No Iterations 1
DILUPBiCGStab:  Solving for e, Initial residual = 0.00400005, Final residual = 2.03248e-06, No Iterations 1
DICPCG:  Solving for p_rgh, Initial residual = 0.0479723, Final residual = 0.000469531, No Iterations 154
time step continuity errors : sum local = 6.08405, global = 0.20619, cumulative = -5.12284
DILUPBiCGStab:  Solving for epsilon, Initial residual = 0, Final residual = 0, No Iterations 0
DILUPBiCGStab:  Solving for k, Initial residual = 0.00120826, Final residual = 0.000100898, No Iterations 1
ExecutionTime = 4.47 s  ClockTime = 5 s

Time = 86

DILUPBiCGStab:  Solving for Ux, Initial residual = 0.0022686, Final residual = 0.000159324, No Iterations 1
DILUPBiCGStab:  Solving for Uy, Initial residual = 0.0030414, Final residual = 0.000254235, No Iterations 1
DILUPBiCGStab:  Solving for Uz, Initial residual = 0.0212747, Final residual = 0.00122204, No Iterations 1
DILUPBiCGStab:  Solving for e, Initial residual = 0.00396515, Final residual = 1.9403e-06, No Iterations 1
DICPCG:  Solving for p_rgh, Initial residual = 0.0472424, Final residual = 0.000467759, No Iterations 63
time step continuity errors : sum local = 5.93258, global = 0.246075, cumulative = -4.87677
DILUPBiCGStab:  Solving for epsilon, Initial residual = 0, Final residual = 0, No Iterations 0
DILUPBiCGStab:  Solving for k, Initial residual = 0.00119291, Final residual = 9.27428e-05, No Iterations 1
ExecutionTime = 4.51 s  ClockTime = 5 s

Time = 87

DILUPBiCGStab:  Solving for Ux, Initial residual = 0.00227614, Final residual = 0.000158063, No Iterations 1
DILUPBiCGStab:  Solving for Uy, Initial residual = 0.00299829, Final residual = 0.000245436, No Iterations 1
DILUPBiCGStab:  Solving for Uz, Initial residual = 0.0213536, Final residual = 0.00110476, No Iterations 1
DILUPBiCGStab:  Solving for e, Initial residual = 0.00393009, Final residual = 1.85014e-06, No Iterations 1
DICPCG:  Solving for p_rgh, Initial residual = 0.0464316, Final residual = 0.000454537, No Iterations 98
time step continuity errors : sum local = 5.74625, global = -0.586696, cumulative = -5.46346
DILUPBiCGStab:  Solving for epsilon, Initial residual = 0, Final residual = 0, No Iterations 0
DILUPBiCGStab:  Solving for k, Initial residual = 0.00117862, Final residual = 8.45218e-05, No Iterations 1
ExecutionTime = 4.55 s  ClockTime = 5 s

Time = 88

DILUPBiCGStab:  Solving for Ux, Initial residual = 0.0022773, Final residual = 0.000156481, No Iterations 1
DILUPBiCGStab:  Solving for Uy, Initial residual = 0.00295021, Final residual = 0.000235952, No Iterations 1
DILUPBiCGStab:  Solving for Uz, Initial residual = 0.0209816, Final residual = 0.00106418, No Iterations 1
DILUPBiCGStab:  Solving for e, Initial residual = 0.00389614, Final residual = 1.76857e-06, No Iterations 1
DICPCG:  Solving for p_rgh, Initial residual = 0.0451901, Final residual = 0.0003651, No Iterations 174
time step continuity errors : sum local = 4.61122, global = -0.0770791, cumulative = -5.54054
DILUPBiCGStab:  Solving for epsilon, Initial residual = 0, Final residual = 0, No Iterations 0
DILUPBiCGStab:  Solving for k, Initial residual = 0.0011653, Final residual = 7.66051e-05, No Iterations 1
[...]
DILUPBiCGStab:  Solving for k, Initial residual = 9.73949e-06, Final residual = 9.73949e-06, No Iterations 0
ExecutionTime = 39.58 s  ClockTime = 41 s

Time = 979

DILUPBiCGStab:  Solving for Ux, Initial residual = 1.24097e-09, Final residual = 1.24097e-09, No Iterations 0
DILUPBiCGStab:  Solving for Uy, Initial residual = 2.13401e-09, Final residual = 2.13401e-09, No Iterations 0
DILUPBiCGStab:  Solving for Uz, Initial residual = 0.000574094, Final residual = 2.68846e-06, No Iterations 1
DILUPBiCGStab:  Solving for e, Initial residual = 9.44675e-06, Final residual = 9.44675e-06, No Iterations 0
DICPCG:  Solving for p_rgh, Initial residual = 9.08725e-09, Final residual = 9.08725e-09, No Iterations 0
time step continuity errors : sum local = 0.000102535, global = -3.05374e-05, cumulative = -10.0897
DILUPBiCGStab:  Solving for epsilon, Initial residual = 0, Final residual = 0, No Iterations 0
DILUPBiCGStab:  Solving for k, Initial residual = 9.73949e-06, Final residual = 9.73949e-06, No Iterations 0
ExecutionTime = 39.6 s  ClockTime = 41 s

Time = 980

DILUPBiCGStab:  Solving for Ux, Initial residual = 1.23933e-09, Final residual = 1.23933e-09, No Iterations 0
DILUPBiCGStab:  Solving for Uy, Initial residual = 2.13378e-09, Final residual = 2.13378e-09, No Iterations 0
DILUPBiCGStab:  Solving for Uz, Initial residual = 0.000567903, Final residual = 2.79625e-06, No Iterations 1
DILUPBiCGStab:  Solving for e, Initial residual = 9.44674e-06, Final residual = 9.44674e-06, No Iterations 0
DICPCG:  Solving for p_rgh, Initial residual = 1.09782e-08, Final residual = 8.25928e-09, No Iterations 170
time step continuity errors : sum local = 9.31928e-05, global = -1.0101e-06, cumulative = -10.0897
DILUPBiCGStab:  Solving for epsilon, Initial residual = 0, Final residual = 0, No Iterations 0
DILUPBiCGStab:  Solving for k, Initial residual = 9.73949e-06, Final residual = 9.73949e-06, No Iterations 0
ExecutionTime = 39.65 s  ClockTime = 41 s

Time = 981

DILUPBiCGStab:  Solving for Ux, Initial residual = 1.58076e-09, Final residual = 1.58076e-09, No Iterations 0
DILUPBiCGStab:  Solving for Uy, Initial residual = 2.30679e-09, Final residual = 2.30679e-09, No Iterations 0
DILUPBiCGStab:  Solving for Uz, Initial residual = 0.000565604, Final residual = 2.94169e-06, No Iterations 1
DILUPBiCGStab:  Solving for e, Initial residual = 9.45262e-06, Final residual = 9.45262e-06, No Iterations 0
DICPCG:  Solving for p_rgh, Initial residual = 7.39615e-09, Final residual = 7.39615e-09, No Iterations 0
time step continuity errors : sum local = 8.34538e-05, global = -1.7153e-05, cumulative = -10.0897
DILUPBiCGStab:  Solving for epsilon, Initial residual = 0, Final residual = 0, No Iterations 0
DILUPBiCGStab:  Solving for k, Initial residual = 9.73949e-06, Final residual = 9.73949e-06, No Iterations 0
ExecutionTime = 39.67 s  ClockTime = 41 s

Time = 982

DILUPBiCGStab:  Solving for Ux, Initial residual = 1.57212e-09, Final residual = 1.57212e-09, No Iterations 0
DILUPBiCGStab:  Solving for Uy, Initial residual = 2.29492e-09, Final residual = 2.29492e-09, No Iterations 0
DILUPBiCGStab:  Solving for Uz, Initial residual = 0.000566344, Final residual = 2.78684e-06, No Iterations 1
DILUPBiCGStab:  Solving for e, Initial residual = 9.44709e-06, Final residual = 9.44709e-06, No Iterations 0
DICPCG:  Solving for p_rgh, Initial residual = 7.98954e-09, Final residual = 7.98954e-09, No Iterations 0
time step continuity errors : sum local = 9.01493e-05, global = -1.04406e-05, cumulative = -10.0897
DILUPBiCGStab:  Solving for epsilon, Initial residual = 0, Final residual = 0, No Iterations 0
DILUPBiCGStab:  Solving for k, Initial residual = 9.7395e-06, Final residual = 9.7395e-06, No Iterations 0
ExecutionTime = 39.7 s  ClockTime = 41 s

Time = 983

DILUPBiCGStab:  Solving for Ux, Initial residual = 1.56344e-09, Final residual = 1.56344e-09, No Iterations 0
DILUPBiCGStab:  Solving for Uy, Initial residual = 2.30116e-09, Final residual = 2.30116e-09, No Iterations 0
DILUPBiCGStab:  Solving for Uz, Initial residual = 0.000563097, Final residual = 2.91676e-06, No Iterations 1
DILUPBiCGStab:  Solving for e, Initial residual = 9.44709e-06, Final residual = 9.44709e-06, No Iterations 0
DICPCG:  Solving for p_rgh, Initial residual = 9.10486e-09, Final residual = 9.10486e-09, No Iterations 0
time step continuity errors : sum local = 0.000102734, global = -3.69464e-06, cumulative = -10.0897
DILUPBiCGStab:  Solving for epsilon, Initial residual = 0, Final residual = 0, No Iterations 0
DILUPBiCGStab:  Solving for k, Initial residual = 9.7395e-06, Final residual = 9.7395e-06, No Iterations 0
ExecutionTime = 39.72 s  ClockTime = 41 s

Time = 984

DILUPBiCGStab:  Solving for Ux, Initial residual = 1.55494e-09, Final residual = 1.55494e-09, No Iterations 0
DILUPBiCGStab:  Solving for Uy, Initial residual = 2.30777e-09, Final residual = 2.30777e-09, No Iterations 0
DILUPBiCGStab:  Solving for Uz, Initial residual = 0.000561401, Final residual = 2.80294e-06, No Iterations 1
DILUPBiCGStab:  Solving for e, Initial residual = 9.44709e-06, Final residual = 9.44709e-06, No Iterations 0
DICPCG:  Solving for p_rgh, Initial residual = 1.07432e-08, Final residual = 9.01966e-09, No Iterations 5
time step continuity errors : sum local = 0.000101773, global = 3.26166e-06, cumulative = -10.0897
DILUPBiCGStab:  Solving for epsilon, Initial residual = 0, Final residual = 0, No Iterations 0
DILUPBiCGStab:  Solving for k, Initial residual = 9.73951e-06, Final residual = 9.73951e-06, No Iterations 0
ExecutionTime = 39.74 s  ClockTime = 41 s

Time = 985

DILUPBiCGStab:  Solving for Ux, Initial residual = 1.58259e-09, Final residual = 1.58259e-09, No Iterations 0
DILUPBiCGStab:  Solving for Uy, Initial residual = 2.24264e-09, Final residual = 2.24264e-09, No Iterations 0
DILUPBiCGStab:  Solving for Uz, Initial residual = 0.000564873, Final residual = 2.79665e-06, No Iterations 1
DILUPBiCGStab:  Solving for e, Initial residual = 9.4471e-06, Final residual = 9.4471e-06, No Iterations 0
DICPCG:  Solving for p_rgh, Initial residual = 8.76543e-09, Final residual = 8.76543e-09, No Iterations 0
time step continuity errors : sum local = 9.8904e-05, global = 9.99538e-06, cumulative = -10.0897
DILUPBiCGStab:  Solving for epsilon, Initial residual = 0, Final residual = 0, No Iterations 0
DILUPBiCGStab:  Solving for k, Initial residual = 9.7395e-06, Final residual = 9.7395e-06, No Iterations 0
ExecutionTime = 39.76 s  ClockTime = 41 s

Time = 986

DILUPBiCGStab:  Solving for Ux, Initial residual = 1.57395e-09, Final residual = 1.57395e-09, No Iterations 0
DILUPBiCGStab:  Solving for Uy, Initial residual = 2.24979e-09, Final residual = 2.24979e-09, No Iterations 0
DILUPBiCGStab:  Solving for Uz, Initial residual = 0.000561719, Final residual = 2.77302e-06, No Iterations 1
DILUPBiCGStab:  Solving for e, Initial residual = 9.44708e-06, Final residual = 9.44708e-06, No Iterations 0
DICPCG:  Solving for p_rgh, Initial residual = 1.0384e-08, Final residual = 8.76196e-09, No Iterations 2
time step continuity errors : sum local = 9.88649e-05, global = 1.74567e-05, cumulative = -10.0897
DILUPBiCGStab:  Solving for epsilon, Initial residual = 0, Final residual = 0, No Iterations 0
DILUPBiCGStab:  Solving for k, Initial residual = 9.73951e-06, Final residual = 9.73951e-06, No Iterations 0
ExecutionTime = 39.79 s  ClockTime = 41 s

Time = 987

DILUPBiCGStab:  Solving for Ux, Initial residual = 1.57268e-09, Final residual = 1.57268e-09, No Iterations 0
DILUPBiCGStab:  Solving for Uy, Initial residual = 2.23775e-09, Final residual = 2.23775e-09, No Iterations 0
DILUPBiCGStab:  Solving for Uz, Initial residual = 0.00054966, Final residual = 2.86826e-06, No Iterations 1
DILUPBiCGStab:  Solving for e, Initial residual = 9.44708e-06, Final residual = 9.44708e-06, No Iterations 0
DICPCG:  Solving for p_rgh, Initial residual = 9.22319e-09, Final residual = 9.22319e-09, No Iterations 0
time step continuity errors : sum local = 0.000104069, global = 2.40459e-05, cumulative = -10.0896
DILUPBiCGStab:  Solving for epsilon, Initial residual = 0, Final residual = 0, No Iterations 0
DILUPBiCGStab:  Solving for k, Initial residual = 9.73951e-06, Final residual = 9.73951e-06, No Iterations 0
ExecutionTime = 39.81 s  ClockTime = 41 s

Time = 988

DILUPBiCGStab:  Solving for Ux, Initial residual = 1.56421e-09, Final residual = 1.56421e-09, No Iterations 0
DILUPBiCGStab:  Solving for Uy, Initial residual = 2.24477e-09, Final residual = 2.24477e-09, No Iterations 0
DILUPBiCGStab:  Solving for Uz, Initial residual = 0.000559713, Final residual = 2.70941e-06, No Iterations 1
DILUPBiCGStab:  Solving for e, Initial residual = 9.44707e-06, Final residual = 9.44707e-06, No Iterations 0
DICPCG:  Solving for p_rgh, Initial residual = 1.1628e-08, Final residual = 9.2647e-09, No Iterations 143
time step continuity errors : sum local = 0.000104537, global = -1.17824e-06, cumulative = -10.0896
DILUPBiCGStab:  Solving for epsilon, Initial residual = 0, Final residual = 0, No Iterations 0
DILUPBiCGStab:  Solving for k, Initial residual = 9.73951e-06, Final residual = 9.73951e-06, No Iterations 0
ExecutionTime = 39.85 s  ClockTime = 41 s

Time = 989

DILUPBiCGStab:  Solving for Ux, Initial residual = 4.43254e-10, Final residual = 4.43254e-10, No Iterations 0
DILUPBiCGStab:  Solving for Uy, Initial residual = 7.38204e-10, Final residual = 7.38204e-10, No Iterations 0
DILUPBiCGStab:  Solving for Uz, Initial residual = 0.000566676, Final residual = 2.83065e-06, No Iterations 1
DILUPBiCGStab:  Solving for e, Initial residual = 9.44641e-06, Final residual = 9.44641e-06, No Iterations 0
DICPCG:  Solving for p_rgh, Initial residual = 9.29745e-09, Final residual = 9.29745e-09, No Iterations 0
time step continuity errors : sum local = 0.000104907, global = 1.86387e-05, cumulative = -10.0896
DILUPBiCGStab:  Solving for epsilon, Initial residual = 0, Final residual = 0, No Iterations 0
DILUPBiCGStab:  Solving for k, Initial residual = 9.73951e-06, Final residual = 9.73951e-06, No Iterations 0
ExecutionTime = 39.88 s  ClockTime = 41 s

Time = 990

DILUPBiCGStab:  Solving for Ux, Initial residual = 4.53901e-10, Final residual = 4.53901e-10, No Iterations 0
DILUPBiCGStab:  Solving for Uy, Initial residual = 7.04089e-10, Final residual = 7.04089e-10, No Iterations 0
DILUPBiCGStab:  Solving for Uz, Initial residual = 0.000556667, Final residual = 2.71423e-06, No Iterations 1
DILUPBiCGStab:  Solving for e, Initial residual = 9.44636e-06, Final residual = 9.44636e-06, No Iterations 0
DICPCG:  Solving for p_rgh, Initial residual = 1.09491e-08, Final residual = 9.02272e-09, No Iterations 1
time step continuity errors : sum local = 0.000101807, global = 1.57404e-05, cumulative = -10.0896
DILUPBiCGStab:  Solving for epsilon, Initial residual = 0, Final residual = 0, No Iterations 0
DILUPBiCGStab:  Solving for k, Initial residual = 9.73951e-06, Final residual = 9.73951e-06, No Iterations 0
ExecutionTime = 39.9 s  ClockTime = 41 s

Time = 991

DILUPBiCGStab:  Solving for Ux, Initial residual = 4.44493e-10, Final residual = 4.44493e-10, No Iterations 0
DILUPBiCGStab:  Solving for Uy, Initial residual = 7.0279e-10, Final residual = 7.0279e-10, No Iterations 0
DILUPBiCGStab:  Solving for Uz, Initial residual = 0.000560548, Final residual = 2.69671e-06, No Iterations 1
DILUPBiCGStab:  Solving for e, Initial residual = 9.44636e-06, Final residual = 9.44636e-06, No Iterations 0
DICPCG:  Solving for p_rgh, Initial residual = 7.10875e-09, Final residual = 7.10875e-09, No Iterations 0
time step continuity errors : sum local = 8.0211e-05, global = 1.30758e-05, cumulative = -10.0896
DILUPBiCGStab:  Solving for epsilon, Initial residual = 0, Final residual = 0, No Iterations 0
DILUPBiCGStab:  Solving for k, Initial residual = 9.73951e-06, Final residual = 9.73951e-06, No Iterations 0
ExecutionTime = 39.92 s  ClockTime = 41 s

Time = 992

DILUPBiCGStab:  Solving for Ux, Initial residual = 4.41485e-10, Final residual = 4.41485e-10, No Iterations 0
DILUPBiCGStab:  Solving for Uy, Initial residual = 7.03285e-10, Final residual = 7.03285e-10, No Iterations 0
DILUPBiCGStab:  Solving for Uz, Initial residual = 0.000564552, Final residual = 2.79725e-06, No Iterations 1
DILUPBiCGStab:  Solving for e, Initial residual = 9.44636e-06, Final residual = 9.44636e-06, No Iterations 0
DICPCG:  Solving for p_rgh, Initial residual = 7.95239e-09, Final residual = 7.95239e-09, No Iterations 0
time step continuity errors : sum local = 8.97301e-05, global = 1.02975e-05, cumulative = -10.0896
DILUPBiCGStab:  Solving for epsilon, Initial residual = 0, Final residual = 0, No Iterations 0
DILUPBiCGStab:  Solving for k, Initial residual = 9.73951e-06, Final residual = 9.73951e-06, No Iterations 0
ExecutionTime = 39.94 s  ClockTime = 41 s

Time = 993

DILUPBiCGStab:  Solving for Ux, Initial residual = 4.3873e-10, Final residual = 4.3873e-10, No Iterations 0
DILUPBiCGStab:  Solving for Uy, Initial residual = 7.04156e-10, Final residual = 7.04156e-10, No Iterations 0
DILUPBiCGStab:  Solving for Uz, Initial residual = 0.000559333, Final residual = 2.67473e-06, No Iterations 1
DILUPBiCGStab:  Solving for e, Initial residual = 9.44636e-06, Final residual = 9.44636e-06, No Iterations 0
DICPCG:  Solving for p_rgh, Initial residual = 9.28454e-09, Final residual = 9.28454e-09, No Iterations 0
time step continuity errors : sum local = 0.000104761, global = 7.51725e-06, cumulative = -10.0896
DILUPBiCGStab:  Solving for epsilon, Initial residual = 0, Final residual = 0, No Iterations 0
DILUPBiCGStab:  Solving for k, Initial residual = 9.73951e-06, Final residual = 9.73951e-06, No Iterations 0
ExecutionTime = 39.97 s  ClockTime = 41 s

Time = 994

DILUPBiCGStab:  Solving for Ux, Initial residual = 4.36033e-10, Final residual = 4.36033e-10, No Iterations 0
DILUPBiCGStab:  Solving for Uy, Initial residual = 7.05142e-10, Final residual = 7.05142e-10, No Iterations 0
DILUPBiCGStab:  Solving for Uz, Initial residual = 0.000564511, Final residual = 2.71791e-06, No Iterations 1
DILUPBiCGStab:  Solving for e, Initial residual = 9.44637e-06, Final residual = 9.44637e-06, No Iterations 0
DICPCG:  Solving for p_rgh, Initial residual = 1.08862e-08, Final residual = 9.2545e-09, No Iterations 5
time step continuity errors : sum local = 0.000104422, global = 3.58458e-06, cumulative = -10.0896
DILUPBiCGStab:  Solving for epsilon, Initial residual = 0, Final residual = 0, No Iterations 0
DILUPBiCGStab:  Solving for k, Initial residual = 9.7395e-06, Final residual = 9.7395e-06, No Iterations 0
ExecutionTime = 39.99 s  ClockTime = 41 s

Time = 995

DILUPBiCGStab:  Solving for Ux, Initial residual = 4.41342e-10, Final residual = 4.41342e-10, No Iterations 0
DILUPBiCGStab:  Solving for Uy, Initial residual = 6.92245e-10, Final residual = 6.92245e-10, No Iterations 0
DILUPBiCGStab:  Solving for Uz, Initial residual = 0.000562578, Final residual = 2.70822e-06, No Iterations 1
DILUPBiCGStab:  Solving for e, Initial residual = 9.44645e-06, Final residual = 9.44645e-06, No Iterations 0
DICPCG:  Solving for p_rgh, Initial residual = 9.10269e-09, Final residual = 9.10269e-09, No Iterations 0
time step continuity errors : sum local = 0.000102709, global = 1.2906e-06, cumulative = -10.0896
DILUPBiCGStab:  Solving for epsilon, Initial residual = 0, Final residual = 0, No Iterations 0
DILUPBiCGStab:  Solving for k, Initial residual = 9.7395e-06, Final residual = 9.7395e-06, No Iterations 0
ExecutionTime = 40.01 s  ClockTime = 41 s

Time = 996

DILUPBiCGStab:  Solving for Ux, Initial residual = 4.36932e-10, Final residual = 4.36932e-10, No Iterations 0
DILUPBiCGStab:  Solving for Uy, Initial residual = 6.93842e-10, Final residual = 6.93842e-10, No Iterations 0
DILUPBiCGStab:  Solving for Uz, Initial residual = 0.000562255, Final residual = 2.71556e-06, No Iterations 1
DILUPBiCGStab:  Solving for e, Initial residual = 9.44636e-06, Final residual = 9.44636e-06, No Iterations 0
DICPCG:  Solving for p_rgh, Initial residual = 1.06303e-08, Final residual = 9.87716e-09, No Iterations 65
time step continuity errors : sum local = 0.000111448, global = 5.30432e-06, cumulative = -10.0896
DILUPBiCGStab:  Solving for epsilon, Initial residual = 0, Final residual = 0, No Iterations 0
DILUPBiCGStab:  Solving for k, Initial residual = 9.7395e-06, Final residual = 9.7395e-06, No Iterations 0
ExecutionTime = 40.06 s  ClockTime = 41 s

Time = 997

DILUPBiCGStab:  Solving for Ux, Initial residual = 4.1819e-10, Final residual = 4.1819e-10, No Iterations 0
DILUPBiCGStab:  Solving for Uy, Initial residual = 9.30288e-10, Final residual = 9.30288e-10, No Iterations 0
DILUPBiCGStab:  Solving for Uz, Initial residual = 0.000563139, Final residual = 2.99777e-06, No Iterations 1
DILUPBiCGStab:  Solving for e, Initial residual = 9.44758e-06, Final residual = 9.44758e-06, No Iterations 0
DICPCG:  Solving for p_rgh, Initial residual = 9.04806e-09, Final residual = 9.04806e-09, No Iterations 0
time step continuity errors : sum local = 0.000102093, global = -6.14475e-07, cumulative = -10.0896
DILUPBiCGStab:  Solving for epsilon, Initial residual = 0, Final residual = 0, No Iterations 0
DILUPBiCGStab:  Solving for k, Initial residual = 9.7395e-06, Final residual = 9.7395e-06, No Iterations 0
ExecutionTime = 40.08 s  ClockTime = 41 s

Time = 998

DILUPBiCGStab:  Solving for Ux, Initial residual = 4.13151e-10, Final residual = 4.13151e-10, No Iterations 0
DILUPBiCGStab:  Solving for Uy, Initial residual = 9.34429e-10, Final residual = 9.34429e-10, No Iterations 0
DILUPBiCGStab:  Solving for Uz, Initial residual = 0.000558822, Final residual = 2.59875e-06, No Iterations 1
DILUPBiCGStab:  Solving for e, Initial residual = 9.44652e-06, Final residual = 9.44652e-06, No Iterations 0
DICPCG:  Solving for p_rgh, Initial residual = 1.09472e-08, Final residual = 8.66863e-09, No Iterations 3
time step continuity errors : sum local = 9.78116e-05, global = -1.18933e-06, cumulative = -10.0896
DILUPBiCGStab:  Solving for epsilon, Initial residual = 0, Final residual = 0, No Iterations 0
DILUPBiCGStab:  Solving for k, Initial residual = 9.7395e-06, Final residual = 9.7395e-06, No Iterations 0
ExecutionTime = 40.1 s  ClockTime = 41 s

Time = 999

DILUPBiCGStab:  Solving for Ux, Initial residual = 3.95062e-10, Final residual = 3.95062e-10, No Iterations 0
DILUPBiCGStab:  Solving for Uy, Initial residual = 8.96907e-10, Final residual = 8.96907e-10, No Iterations 0
DILUPBiCGStab:  Solving for Uz, Initial residual = 0.000557601, Final residual = 2.82992e-06, No Iterations 1
DILUPBiCGStab:  Solving for e, Initial residual = 9.44656e-06, Final residual = 9.44656e-06, No Iterations 0
DICPCG:  Solving for p_rgh, Initial residual = 9.0096e-09, Final residual = 9.0096e-09, No Iterations 0
time step continuity errors : sum local = 0.000101659, global = -2.26618e-06, cumulative = -10.0896
DILUPBiCGStab:  Solving for epsilon, Initial residual = 0, Final residual = 0, No Iterations 0
DILUPBiCGStab:  Solving for k, Initial residual = 9.7395e-06, Final residual = 9.7395e-06, No Iterations 0
ExecutionTime = 40.12 s  ClockTime = 41 s

Time = 1000

DILUPBiCGStab:  Solving for Ux, Initial residual = 3.9443e-10, Final residual = 3.9443e-10, No Iterations 0
DILUPBiCGStab:  Solving for Uy, Initial residual = 8.95786e-10, Final residual = 8.95786e-10, No Iterations 0
DILUPBiCGStab:  Solving for Uz, Initial residual = 0.000552436, Final residual = 2.63717e-06, No Iterations 1
DILUPBiCGStab:  Solving for e, Initial residual = 9.44653e-06, Final residual = 9.44653e-06, No Iterations 0
DICPCG:  Solving for p_rgh, Initial residual = 1.04235e-08, Final residual = 7.99441e-09, No Iterations 5
time step continuity errors : sum local = 9.02042e-05, global = -1.96582e-07, cumulative = -10.0896
DILUPBiCGStab:  Solving for epsilon, Initial residual = 0, Final residual = 0, No Iterations 0
DILUPBiCGStab:  Solving for k, Initial residual = 9.7395e-06, Final residual = 9.7395e-06, No Iterations 0
ExecutionTime = 40.26 s  ClockTime = 41 s

End

