/*---------------------------------------------------------------------------*\
  =========                 |
  \\      /  F ield         | OpenFOAM: The Open Source CFD Toolbox
   \\    /   O peration     | Website:  https://openfoam.org
    \\  /    A nd           | Version:  8
     \\/     M anipulation  |
\*---------------------------------------------------------------------------*/
Build  : 8-1c9b5879390b
Exec   : buoyantSimpleFoam
Date   : Jan 27 2025
Time   : 15:00:42
Host   : "658dd9edf29b"
PID    : 947
I/O    : uncollated
Case   : /home/openfoam/run/straightPipe/Re100/q-500
nProcs : 1
sigFpe : Enabling floating point exception trapping (FOAM_SIGFPE).
fileModificationChecking : Monitoring run-time modified files using timeStampMaster (fileModificationSkew 10)
allowSystemOperations : Allowing user-supplied system call operations

// * * * * * * * * * * * * * * * * * * * * * * * * * * * * * * * * * * * * * //
Create time

Create mesh for time = 0


SIMPLE: Convergence criteria found
        p_rgh: tolerance 0.01
        U: tolerance 0.0001
        e: tolerance 0.01
        "(k|epsilon|omega)": tolerance 0.001

Reading thermophysical properties

Selecting thermodynamics package 
{
    type            heRhoThermo;
    mixture         pureMixture;
    transport       const;
    thermo          eConst;
    equationOfState Boussinesq;
    specie          specie;
    energy          sensibleInternalEnergy;
}

Reading field U

Reading/calculating face flux field phi

Creating turbulence model

Selecting turbulence model type RAS
Selecting RAS turbulence model kEpsilon
RAS
{
    RASModel        kEpsilon;
    turbulence      on;
    printCoeffs     on;
    Cmu             0.09;
    C1              1.44;
    C2              1.92;
    C3              0;
    sigmak          1;
    sigmaEps        1.3;
}

Creating thermophysical transport model

Selecting thermophysical transport type RAS
Selecting default RAS thermophysical transport model eddyDiffusivity

Reading g

Reading hRef
Calculating field g.h


Reading pRef
Reading field p_rgh

--> FOAM Warning : 
    From function const Foam::HashTable<Foam::List<int>, Foam::word>& Foam::polyBoundaryMesh::groupPatchIDs() const
    in file meshes/polyMesh/polyBoundaryMesh/polyBoundaryMesh.C at line 473
    Removing patchGroup 'wall' which clashes with patch 0 of the same name.
No MRF models present

Radiation model not active: radiationProperties not found
Selecting radiationModel none
No finite volume options present

Starting time loop

Time = 1

DILUPBiCGStab:  Solving for Ux, Initial residual = 1, Final residual = 0.0287592, No Iterations 1
DILUPBiCGStab:  Solving for Uy, Initial residual = 1, Final residual = 0.0150486, No Iterations 1
DILUPBiCGStab:  Solving for Uz, Initial residual = 1, Final residual = 0.0704134, No Iterations 1
DILUPBiCGStab:  Solving for e, Initial residual = 1, Final residual = 0.000792108, No Iterations 1
DICPCG:  Solving for p_rgh, Initial residual = 0.973189, Final residual = 0.0092887, No Iterations 93
time step continuity errors : sum local = 6.30027, global = -0.00822316, cumulative = -0.00822316
DILUPBiCGStab:  Solving for epsilon, Initial residual = 0, Final residual = 0, No Iterations 0
DILUPBiCGStab:  Solving for k, Initial residual = 1, Final residual = 0.0122661, No Iterations 1
ExecutionTime = 0.12 s  ClockTime = 1 s

Time = 2

DILUPBiCGStab:  Solving for Ux, Initial residual = 0.918092, Final residual = 0.0870886, No Iterations 1
DILUPBiCGStab:  Solving for Uy, Initial residual = 0.984352, Final residual = 0.00505747, No Iterations 1
DILUPBiCGStab:  Solving for Uz, Initial residual = 0.99448, Final residual = 0.0869895, No Iterations 1
DILUPBiCGStab:  Solving for e, Initial residual = 0.137968, Final residual = 0.00915329, No Iterations 1
DICPCG:  Solving for p_rgh, Initial residual = 0.988253, Final residual = 0.00657855, No Iterations 17
time step continuity errors : sum local = 116.105, global = -13.947, cumulative = -13.9553
DILUPBiCGStab:  Solving for epsilon, Initial residual = 0, Final residual = 0, No Iterations 0
DILUPBiCGStab:  Solving for k, Initial residual = 0.990649, Final residual = 0.00474004, No Iterations 1
ExecutionTime = 0.13 s  ClockTime = 1 s

Time = 3

DILUPBiCGStab:  Solving for Ux, Initial residual = 0.215073, Final residual = 0.0111756, No Iterations 1
DILUPBiCGStab:  Solving for Uy, Initial residual = 0.167984, Final residual = 0.00939024, No Iterations 1
DILUPBiCGStab:  Solving for Uz, Initial residual = 0.578062, Final residual = 0.0273249, No Iterations 1
DILUPBiCGStab:  Solving for e, Initial residual = 0.218986, Final residual = 0.00363394, No Iterations 1
DICPCG:  Solving for p_rgh, Initial residual = 0.911027, Final residual = 0.00897226, No Iterations 65
time step continuity errors : sum local = 154.889, global = 7.68248, cumulative = -6.27278
DILUPBiCGStab:  Solving for epsilon, Initial residual = 0, Final residual = 0, No Iterations 0
DILUPBiCGStab:  Solving for k, Initial residual = 0.670794, Final residual = 0.00621223, No Iterations 1
ExecutionTime = 0.13 s  ClockTime = 1 s

Time = 4

DILUPBiCGStab:  Solving for Ux, Initial residual = 0.3865, Final residual = 0.0102243, No Iterations 1
DILUPBiCGStab:  Solving for Uy, Initial residual = 0.20427, Final residual = 0.00649315, No Iterations 1
DILUPBiCGStab:  Solving for Uz, Initial residual = 0.237693, Final residual = 0.00727489, No Iterations 1
DILUPBiCGStab:  Solving for e, Initial residual = 0.0727254, Final residual = 0.00149958, No Iterations 1
DICPCG:  Solving for p_rgh, Initial residual = 0.850793, Final residual = 0.00568632, No Iterations 97
time step continuity errors : sum local = 52.4858, global = 0.0644924, cumulative = -6.20828
DILUPBiCGStab:  Solving for epsilon, Initial residual = 0, Final residual = 0, No Iterations 0
DILUPBiCGStab:  Solving for k, Initial residual = 0.349728, Final residual = 0.0112223, No Iterations 1
ExecutionTime = 0.14 s  ClockTime = 1 s

Time = 5

DILUPBiCGStab:  Solving for Ux, Initial residual = 0.523756, Final residual = 0.0305189, No Iterations 1
DILUPBiCGStab:  Solving for Uy, Initial residual = 0.286917, Final residual = 0.0139651, No Iterations 1
DILUPBiCGStab:  Solving for Uz, Initial residual = 0.320116, Final residual = 0.0165852, No Iterations 1
DILUPBiCGStab:  Solving for e, Initial residual = 0.0445074, Final residual = 0.00118845, No Iterations 1
DICPCG:  Solving for p_rgh, Initial residual = 0.45405, Final residual = 0.00298766, No Iterations 95
time step continuity errors : sum local = 22.5111, global = -0.0420201, cumulative = -6.2503
DILUPBiCGStab:  Solving for epsilon, Initial residual = 0, Final residual = 0, No Iterations 0
DILUPBiCGStab:  Solving for k, Initial residual = 0.258269, Final residual = 0.00721446, No Iterations 1
ExecutionTime = 0.14 s  ClockTime = 1 s

Time = 6

DILUPBiCGStab:  Solving for Ux, Initial residual = 0.526103, Final residual = 0.0220613, No Iterations 1
DILUPBiCGStab:  Solving for Uy, Initial residual = 0.356124, Final residual = 0.0155677, No Iterations 1
DILUPBiCGStab:  Solving for Uz, Initial residual = 0.193675, Final residual = 0.00609851, No Iterations 1
DILUPBiCGStab:  Solving for e, Initial residual = 0.0387136, Final residual = 0.000803274, No Iterations 1
DICPCG:  Solving for p_rgh, Initial residual = 0.289508, Final residual = 0.00228379, No Iterations 101
time step continuity errors : sum local = 17.3508, global = -0.0144362, cumulative = -6.26474
DILUPBiCGStab:  Solving for epsilon, Initial residual = 0, Final residual = 0, No Iterations 0
DILUPBiCGStab:  Solving for k, Initial residual = 0.220942, Final residual = 0.00660161, No Iterations 1
ExecutionTime = 0.15 s  ClockTime = 1 s

Time = 7

DILUPBiCGStab:  Solving for Ux, Initial residual = 0.244323, Final residual = 0.0111493, No Iterations 1
DILUPBiCGStab:  Solving for Uy, Initial residual = 0.379447, Final residual = 0.0179749, No Iterations 1
DILUPBiCGStab:  Solving for Uz, Initial residual = 0.196888, Final residual = 0.0065744, No Iterations 1
DILUPBiCGStab:  Solving for e, Initial residual = 0.0292979, Final residual = 0.000485111, No Iterations 1
DICPCG:  Solving for p_rgh, Initial residual = 0.480057, Final residual = 0.00347589, No Iterations 99
time step continuity errors : sum local = 23.5892, global = -0.0298779, cumulative = -6.29462
DILUPBiCGStab:  Solving for epsilon, Initial residual = 0, Final residual = 0, No Iterations 0
DILUPBiCGStab:  Solving for k, Initial residual = 0.220011, Final residual = 0.00588214, No Iterations 1
ExecutionTime = 0.15 s  ClockTime = 1 s

Time = 8

DILUPBiCGStab:  Solving for Ux, Initial residual = 0.698028, Final residual = 0.0405771, No Iterations 1
DILUPBiCGStab:  Solving for Uy, Initial residual = 0.372064, Final residual = 0.0209308, No Iterations 1
DILUPBiCGStab:  Solving for Uz, Initial residual = 0.22465, Final residual = 0.00805059, No Iterations 1
DILUPBiCGStab:  Solving for e, Initial residual = 0.0246236, Final residual = 0.000531536, No Iterations 1
DICPCG:  Solving for p_rgh, Initial residual = 0.354612, Final residual = 0.00295631, No Iterations 105
time step continuity errors : sum local = 40.5369, global = -0.0237524, cumulative = -6.31837
DILUPBiCGStab:  Solving for epsilon, Initial residual = 0, Final residual = 0, No Iterations 0
DILUPBiCGStab:  Solving for k, Initial residual = 0.266036, Final residual = 0.0172228, No Iterations 1
ExecutionTime = 0.16 s  ClockTime = 1 s

Time = 9

DILUPBiCGStab:  Solving for Ux, Initial residual = 0.511143, Final residual = 0.0460585, No Iterations 1
DILUPBiCGStab:  Solving for Uy, Initial residual = 0.179644, Final residual = 0.0160055, No Iterations 1
DILUPBiCGStab:  Solving for Uz, Initial residual = 0.316803, Final residual = 0.0145399, No Iterations 1
DILUPBiCGStab:  Solving for e, Initial residual = 0.0928309, Final residual = 0.00317979, No Iterations 1
DICPCG:  Solving for p_rgh, Initial residual = 0.406681, Final residual = 0.00396941, No Iterations 90
time step continuity errors : sum local = 32.1431, global = 0.0317603, cumulative = -6.28661
DILUPBiCGStab:  Solving for epsilon, Initial residual = 0, Final residual = 0, No Iterations 0
DILUPBiCGStab:  Solving for k, Initial residual = 0.154357, Final residual = 0.00622498, No Iterations 1
ExecutionTime = 0.17 s  ClockTime = 1 s

Time = 10

DILUPBiCGStab:  Solving for Ux, Initial residual = 0.381861, Final residual = 0.0261035, No Iterations 1
DILUPBiCGStab:  Solving for Uy, Initial residual = 0.312324, Final residual = 0.0256361, No Iterations 1
DILUPBiCGStab:  Solving for Uz, Initial residual = 0.191306, Final residual = 0.00877714, No Iterations 1
DILUPBiCGStab:  Solving for e, Initial residual = 0.0693943, Final residual = 0.00151881, No Iterations 1
DICPCG:  Solving for p_rgh, Initial residual = 0.343226, Final residual = 0.00313604, No Iterations 95
time step continuity errors : sum local = 20.0061, global = -0.00891792, cumulative = -6.29553
DILUPBiCGStab:  Solving for epsilon, Initial residual = 0, Final residual = 0, No Iterations 0
DILUPBiCGStab:  Solving for k, Initial residual = 0.105277, Final residual = 0.00290875, No Iterations 1
ExecutionTime = 0.17 s  ClockTime = 1 s

Time = 11

DILUPBiCGStab:  Solving for Ux, Initial residual = 0.196047, Final residual = 0.00908634, No Iterations 1
DILUPBiCGStab:  Solving for Uy, Initial residual = 0.307246, Final residual = 0.0164994, No Iterations 1
DILUPBiCGStab:  Solving for Uz, Initial residual = 0.12223, Final residual = 0.00365669, No Iterations 1
DILUPBiCGStab:  Solving for e, Initial residual = 0.0601727, Final residual = 0.000802087, No Iterations 1
DICPCG:  Solving for p_rgh, Initial residual = 0.36668, Final residual = 0.00305863, No Iterations 96
time step continuity errors : sum local = 13.285, global = -0.000610782, cumulative = -6.29614
DILUPBiCGStab:  Solving for epsilon, Initial residual = 0, Final residual = 0, No Iterations 0
DILUPBiCGStab:  Solving for k, Initial residual = 0.0790707, Final residual = 0.00170987, No Iterations 1
ExecutionTime = 0.18 s  ClockTime = 1 s

Time = 12

DILUPBiCGStab:  Solving for Ux, Initial residual = 0.0895912, Final residual = 0.00209011, No Iterations 1
DILUPBiCGStab:  Solving for Uy, Initial residual = 0.277109, Final residual = 0.00995155, No Iterations 1
DILUPBiCGStab:  Solving for Uz, Initial residual = 0.0889866, Final residual = 0.00225828, No Iterations 1
DILUPBiCGStab:  Solving for e, Initial residual = 0.05559, Final residual = 0.000599791, No Iterations 1
DICPCG:  Solving for p_rgh, Initial residual = 0.413652, Final residual = 0.00314486, No Iterations 96
time step continuity errors : sum local = 9.48867, global = 0.00543361, cumulative = -6.29071
DILUPBiCGStab:  Solving for epsilon, Initial residual = 0, Final residual = 0, No Iterations 0
DILUPBiCGStab:  Solving for k, Initial residual = 0.056718, Final residual = 0.00120504, No Iterations 1
ExecutionTime = 0.19 s  ClockTime = 1 s

Time = 13

DILUPBiCGStab:  Solving for Ux, Initial residual = 0.121228, Final residual = 0.00248482, No Iterations 1
DILUPBiCGStab:  Solving for Uy, Initial residual = 0.244927, Final residual = 0.00727721, No Iterations 1
DILUPBiCGStab:  Solving for Uz, Initial residual = 0.080658, Final residual = 0.00173055, No Iterations 1
DILUPBiCGStab:  Solving for e, Initial residual = 0.0480889, Final residual = 0.000506486, No Iterations 1
DICPCG:  Solving for p_rgh, Initial residual = 0.422838, Final residual = 0.00317794, No Iterations 96
time step continuity errors : sum local = 7.55224, global = 0.00812793, cumulative = -6.28258
DILUPBiCGStab:  Solving for epsilon, Initial residual = 0, Final residual = 0, No Iterations 0
DILUPBiCGStab:  Solving for k, Initial residual = 0.0404733, Final residual = 0.000878178, No Iterations 1
ExecutionTime = 0.19 s  ClockTime = 1 s

Time = 14

DILUPBiCGStab:  Solving for Ux, Initial residual = 0.121208, Final residual = 0.00257746, No Iterations 1
DILUPBiCGStab:  Solving for Uy, Initial residual = 0.190559, Final residual = 0.00525714, No Iterations 1
DILUPBiCGStab:  Solving for Uz, Initial residual = 0.0737544, Final residual = 0.00154734, No Iterations 1
DILUPBiCGStab:  Solving for e, Initial residual = 0.0413014, Final residual = 0.000447096, No Iterations 1
DICPCG:  Solving for p_rgh, Initial residual = 0.360949, Final residual = 0.00294129, No Iterations 99
time step continuity errors : sum local = 8.05768, global = 0.00886931, cumulative = -6.27371
DILUPBiCGStab:  Solving for epsilon, Initial residual = 0, Final residual = 0, No Iterations 0
DILUPBiCGStab:  Solving for k, Initial residual = 0.0278899, Final residual = 0.000629787, No Iterations 1
ExecutionTime = 0.2 s  ClockTime = 1 s

Time = 15

DILUPBiCGStab:  Solving for Ux, Initial residual = 0.0899392, Final residual = 0.00218652, No Iterations 1
DILUPBiCGStab:  Solving for Uy, Initial residual = 0.143499, Final residual = 0.00401853, No Iterations 1
DILUPBiCGStab:  Solving for Uz, Initial residual = 0.0676476, Final residual = 0.00143797, No Iterations 1
DILUPBiCGStab:  Solving for e, Initial residual = 0.0354615, Final residual = 0.000397646, No Iterations 1
DICPCG:  Solving for p_rgh, Initial residual = 0.308481, Final residual = 0.0025242, No Iterations 97
time step continuity errors : sum local = 7.35839, global = 0.00400409, cumulative = -6.2697
DILUPBiCGStab:  Solving for epsilon, Initial residual = 0, Final residual = 0, No Iterations 0
DILUPBiCGStab:  Solving for k, Initial residual = 0.0203421, Final residual = 0.000445873, No Iterations 1
ExecutionTime = 0.2 s  ClockTime = 1 s

Time = 16

DILUPBiCGStab:  Solving for Ux, Initial residual = 0.0577735, Final residual = 0.00161647, No Iterations 1
DILUPBiCGStab:  Solving for Uy, Initial residual = 0.140089, Final residual = 0.0032618, No Iterations 1
DILUPBiCGStab:  Solving for Uz, Initial residual = 0.061429, Final residual = 0.00145673, No Iterations 1
DILUPBiCGStab:  Solving for e, Initial residual = 0.0310682, Final residual = 0.000371681, No Iterations 1
DICPCG:  Solving for p_rgh, Initial residual = 0.273231, Final residual = 0.00197881, No Iterations 99
time step continuity errors : sum local = 5.67175, global = 0.00399882, cumulative = -6.26571
DILUPBiCGStab:  Solving for epsilon, Initial residual = 0, Final residual = 0, No Iterations 0
DILUPBiCGStab:  Solving for k, Initial residual = 0.0174156, Final residual = 0.000358389, No Iterations 1
ExecutionTime = 0.21 s  ClockTime = 1 s

Time = 17

DILUPBiCGStab:  Solving for Ux, Initial residual = 0.0621895, Final residual = 0.00175039, No Iterations 1
DILUPBiCGStab:  Solving for Uy, Initial residual = 0.138076, Final residual = 0.00330238, No Iterations 1
DILUPBiCGStab:  Solving for Uz, Initial residual = 0.0570025, Final residual = 0.00157244, No Iterations 1
DILUPBiCGStab:  Solving for e, Initial residual = 0.0271852, Final residual = 0.000357554, No Iterations 1
DICPCG:  Solving for p_rgh, Initial residual = 0.267689, Final residual = 0.00255864, No Iterations 99
time step continuity errors : sum local = 6.95165, global = 0.00116237, cumulative = -6.26454
DILUPBiCGStab:  Solving for epsilon, Initial residual = 0, Final residual = 0, No Iterations 0
DILUPBiCGStab:  Solving for k, Initial residual = 0.0160194, Final residual = 0.000359158, No Iterations 1
ExecutionTime = 0.22 s  ClockTime = 1 s

Time = 18

DILUPBiCGStab:  Solving for Ux, Initial residual = 0.0560807, Final residual = 0.00171557, No Iterations 1
DILUPBiCGStab:  Solving for Uy, Initial residual = 0.114651, Final residual = 0.00283888, No Iterations 1
DILUPBiCGStab:  Solving for Uz, Initial residual = 0.052987, Final residual = 0.00167742, No Iterations 1
DILUPBiCGStab:  Solving for e, Initial residual = 0.0236287, Final residual = 0.000342081, No Iterations 1
DICPCG:  Solving for p_rgh, Initial residual = 0.246276, Final residual = 0.00208908, No Iterations 79
time step continuity errors : sum local = 5.38177, global = -1.65211, cumulative = -7.91666
DILUPBiCGStab:  Solving for epsilon, Initial residual = 0, Final residual = 0, No Iterations 0
DILUPBiCGStab:  Solving for k, Initial residual = 0.0134522, Final residual = 0.000325827, No Iterations 1
ExecutionTime = 0.22 s  ClockTime = 1 s

Time = 19

DILUPBiCGStab:  Solving for Ux, Initial residual = 0.0449194, Final residual = 0.00134743, No Iterations 1
DILUPBiCGStab:  Solving for Uy, Initial residual = 0.0921886, Final residual = 0.00231126, No Iterations 1
DILUPBiCGStab:  Solving for Uz, Initial residual = 0.0502188, Final residual = 0.00164194, No Iterations 1
DILUPBiCGStab:  Solving for e, Initial residual = 0.0204593, Final residual = 0.000312016, No Iterations 1
DICPCG:  Solving for p_rgh, Initial residual = 0.220758, Final residual = 0.00203388, No Iterations 99
time step continuity errors : sum local = 5.07821, global = -0.0052297, cumulative = -7.92189
DILUPBiCGStab:  Solving for epsilon, Initial residual = 0, Final residual = 0, No Iterations 0
DILUPBiCGStab:  Solving for k, Initial residual = 0.0119122, Final residual = 0.000322761, No Iterations 1
ExecutionTime = 0.23 s  ClockTime = 1 s

Time = 20

DILUPBiCGStab:  Solving for Ux, Initial residual = 0.0582712, Final residual = 0.00156298, No Iterations 1
DILUPBiCGStab:  Solving for Uy, Initial residual = 0.0760959, Final residual = 0.00214955, No Iterations 1
DILUPBiCGStab:  Solving for Uz, Initial residual = 0.0458534, Final residual = 0.001523, No Iterations 1
DILUPBiCGStab:  Solving for e, Initial residual = 0.0171932, Final residual = 0.000273213, No Iterations 1
DICPCG:  Solving for p_rgh, Initial residual = 0.190444, Final residual = 0.00156798, No Iterations 99
time step continuity errors : sum local = 4.162, global = -0.00170356, cumulative = -7.92359
DILUPBiCGStab:  Solving for epsilon, Initial residual = 0, Final residual = 0, No Iterations 0
DILUPBiCGStab:  Solving for k, Initial residual = 0.0113119, Final residual = 0.000309295, No Iterations 1
ExecutionTime = 0.23 s  ClockTime = 1 s

Time = 21

DILUPBiCGStab:  Solving for Ux, Initial residual = 0.0696143, Final residual = 0.00191637, No Iterations 1
DILUPBiCGStab:  Solving for Uy, Initial residual = 0.0630143, Final residual = 0.00178375, No Iterations 1
DILUPBiCGStab:  Solving for Uz, Initial residual = 0.0400046, Final residual = 0.00137747, No Iterations 1
DILUPBiCGStab:  Solving for e, Initial residual = 0.014368, Final residual = 0.000235706, No Iterations 1
DICPCG:  Solving for p_rgh, Initial residual = 0.182426, Final residual = 0.00145497, No Iterations 77
time step continuity errors : sum local = 4.03444, global = -0.682156, cumulative = -8.60575
DILUPBiCGStab:  Solving for epsilon, Initial residual = 0, Final residual = 0, No Iterations 0
DILUPBiCGStab:  Solving for k, Initial residual = 0.0106917, Final residual = 0.000252431, No Iterations 1
ExecutionTime = 0.24 s  ClockTime = 1 s

Time = 22

DILUPBiCGStab:  Solving for Ux, Initial residual = 0.0654685, Final residual = 0.00196636, No Iterations 1
DILUPBiCGStab:  Solving for Uy, Initial residual = 0.0649864, Final residual = 0.0019141, No Iterations 1
DILUPBiCGStab:  Solving for Uz, Initial residual = 0.0328314, Final residual = 0.00112421, No Iterations 1
DILUPBiCGStab:  Solving for e, Initial residual = 0.0119536, Final residual = 0.000199181, No Iterations 1
DICPCG:  Solving for p_rgh, Initial residual = 0.195162, Final residual = 0.00122552, No Iterations 102
time step continuity errors : sum local = 3.31, global = 0.00298054, cumulative = -8.60277
DILUPBiCGStab:  Solving for epsilon, Initial residual = 0, Final residual = 0, No Iterations 0
DILUPBiCGStab:  Solving for k, Initial residual = 0.010368, Final residual = 0.000214137, No Iterations 1
ExecutionTime = 0.25 s  ClockTime = 1 s

Time = 23

DILUPBiCGStab:  Solving for Ux, Initial residual = 0.0525502, Final residual = 0.00158338, No Iterations 1
DILUPBiCGStab:  Solving for Uy, Initial residual = 0.0669484, Final residual = 0.001925, No Iterations 1
DILUPBiCGStab:  Solving for Uz, Initial residual = 0.0262777, Final residual = 0.000945131, No Iterations 1
DILUPBiCGStab:  Solving for e, Initial residual = 0.0101312, Final residual = 0.000171974, No Iterations 1
DICPCG:  Solving for p_rgh, Initial residual = 0.189023, Final residual = 0.0017487, No Iterations 102
time step continuity errors : sum local = 4.5179, global = 0.00352368, cumulative = -8.59924
DILUPBiCGStab:  Solving for epsilon, Initial residual = 0, Final residual = 0, No Iterations 0
DILUPBiCGStab:  Solving for k, Initial residual = 0.00863115, Final residual = 0.000164644, No Iterations 1
ExecutionTime = 0.25 s  ClockTime = 1 s

Time = 24

DILUPBiCGStab:  Solving for Ux, Initial residual = 0.0369752, Final residual = 0.00110466, No Iterations 1
DILUPBiCGStab:  Solving for Uy, Initial residual = 0.0602638, Final residual = 0.00173697, No Iterations 1
DILUPBiCGStab:  Solving for Uz, Initial residual = 0.0233686, Final residual = 0.000823329, No Iterations 1
DILUPBiCGStab:  Solving for e, Initial residual = 0.00913763, Final residual = 0.000158996, No Iterations 1
DICPCG:  Solving for p_rgh, Initial residual = 0.201007, Final residual = 0.00107884, No Iterations 103
time step continuity errors : sum local = 2.56727, global = 0.00497746, cumulative = -8.59426
DILUPBiCGStab:  Solving for epsilon, Initial residual = 0, Final residual = 0, No Iterations 0
DILUPBiCGStab:  Solving for k, Initial residual = 0.00680906, Final residual = 0.000119475, No Iterations 1
ExecutionTime = 0.26 s  ClockTime = 1 s

Time = 25

DILUPBiCGStab:  Solving for Ux, Initial residual = 0.0277654, Final residual = 0.000682244, No Iterations 1
DILUPBiCGStab:  Solving for Uy, Initial residual = 0.0525238, Final residual = 0.00155874, No Iterations 1
DILUPBiCGStab:  Solving for Uz, Initial residual = 0.0223043, Final residual = 0.000770587, No Iterations 1
DILUPBiCGStab:  Solving for e, Initial residual = 0.00867366, Final residual = 0.000168394, No Iterations 1
DICPCG:  Solving for p_rgh, Initial residual = 0.193625, Final residual = 0.00164685, No Iterations 100
time step continuity errors : sum local = 3.42384, global = 0.00237712, cumulative = -8.59189
DILUPBiCGStab:  Solving for epsilon, Initial residual = 0, Final residual = 0, No Iterations 0
DILUPBiCGStab:  Solving for k, Initial residual = 0.00616548, Final residual = 0.000115995, No Iterations 1
ExecutionTime = 0.27 s  ClockTime = 1 s

Time = 26

DILUPBiCGStab:  Solving for Ux, Initial residual = 0.0208455, Final residual = 0.000556721, No Iterations 1
DILUPBiCGStab:  Solving for Uy, Initial residual = 0.0465312, Final residual = 0.00133039, No Iterations 1
DILUPBiCGStab:  Solving for Uz, Initial residual = 0.020477, Final residual = 0.000696176, No Iterations 1
DILUPBiCGStab:  Solving for e, Initial residual = 0.00776839, Final residual = 0.000156325, No Iterations 1
DICPCG:  Solving for p_rgh, Initial residual = 0.170525, Final residual = 0.00153667, No Iterations 100
time step continuity errors : sum local = 3.07284, global = 0.0014238, cumulative = -8.59046
DILUPBiCGStab:  Solving for epsilon, Initial residual = 0, Final residual = 0, No Iterations 0
DILUPBiCGStab:  Solving for k, Initial residual = 0.00850545, Final residual = 0.00015324, No Iterations 1
ExecutionTime = 0.27 s  ClockTime = 1 s

Time = 27

DILUPBiCGStab:  Solving for Ux, Initial residual = 0.0226706, Final residual = 0.000644119, No Iterations 1
DILUPBiCGStab:  Solving for Uy, Initial residual = 0.0404676, Final residual = 0.00109889, No Iterations 1
DILUPBiCGStab:  Solving for Uz, Initial residual = 0.0188155, Final residual = 0.000614499, No Iterations 1
DILUPBiCGStab:  Solving for e, Initial residual = 0.00695639, Final residual = 0.000136285, No Iterations 1
DICPCG:  Solving for p_rgh, Initial residual = 0.1496, Final residual = 0.00121166, No Iterations 101
time step continuity errors : sum local = 2.67768, global = -0.00251194, cumulative = -8.59298
DILUPBiCGStab:  Solving for epsilon, Initial residual = 0, Final residual = 0, No Iterations 0
DILUPBiCGStab:  Solving for k, Initial residual = 0.00933209, Final residual = 0.00018774, No Iterations 1
ExecutionTime = 0.28 s  ClockTime = 1 s

Time = 28

DILUPBiCGStab:  Solving for Ux, Initial residual = 0.0309204, Final residual = 0.000899272, No Iterations 1
DILUPBiCGStab:  Solving for Uy, Initial residual = 0.041021, Final residual = 0.00106116, No Iterations 1
DILUPBiCGStab:  Solving for Uz, Initial residual = 0.0178701, Final residual = 0.000579239, No Iterations 1
DILUPBiCGStab:  Solving for e, Initial residual = 0.00636336, Final residual = 0.000116286, No Iterations 1
DICPCG:  Solving for p_rgh, Initial residual = 0.142585, Final residual = 0.00118829, No Iterations 100
time step continuity errors : sum local = 2.71029, global = -0.00368223, cumulative = -8.59666
DILUPBiCGStab:  Solving for epsilon, Initial residual = 0, Final residual = 0, No Iterations 0
DILUPBiCGStab:  Solving for k, Initial residual = 0.00913279, Final residual = 0.00017089, No Iterations 1
ExecutionTime = 0.28 s  ClockTime = 1 s

Time = 29

DILUPBiCGStab:  Solving for Ux, Initial residual = 0.039165, Final residual = 0.00115925, No Iterations 1
DILUPBiCGStab:  Solving for Uy, Initial residual = 0.0388342, Final residual = 0.00101518, No Iterations 1
DILUPBiCGStab:  Solving for Uz, Initial residual = 0.0172005, Final residual = 0.000515058, No Iterations 1
DILUPBiCGStab:  Solving for e, Initial residual = 0.00588671, Final residual = 0.000102343, No Iterations 1
DICPCG:  Solving for p_rgh, Initial residual = 0.144177, Final residual = 0.000986174, No Iterations 99
time step continuity errors : sum local = 2.50742, global = 0.014518, cumulative = -8.58214
DILUPBiCGStab:  Solving for epsilon, Initial residual = 0, Final residual = 0, No Iterations 0
DILUPBiCGStab:  Solving for k, Initial residual = 0.0102228, Final residual = 0.000217671, No Iterations 1
ExecutionTime = 0.29 s  ClockTime = 1 s

Time = 30

DILUPBiCGStab:  Solving for Ux, Initial residual = 0.0485984, Final residual = 0.001502, No Iterations 1
DILUPBiCGStab:  Solving for Uy, Initial residual = 0.0396435, Final residual = 0.000978647, No Iterations 1
DILUPBiCGStab:  Solving for Uz, Initial residual = 0.0176161, Final residual = 0.00046342, No Iterations 1
DILUPBiCGStab:  Solving for e, Initial residual = 0.00555153, Final residual = 9.02667e-05, No Iterations 1
DICPCG:  Solving for p_rgh, Initial residual = 0.145534, Final residual = 0.00128889, No Iterations 98
time step continuity errors : sum local = 3.23696, global = 0.00420706, cumulative = -8.57793
DILUPBiCGStab:  Solving for epsilon, Initial residual = 0, Final residual = 0, No Iterations 0
DILUPBiCGStab:  Solving for k, Initial residual = 0.0103669, Final residual = 0.000215845, No Iterations 1
ExecutionTime = 0.3 s  ClockTime = 1 s

Time = 31

DILUPBiCGStab:  Solving for Ux, Initial residual = 0.0506562, Final residual = 0.00162926, No Iterations 1
DILUPBiCGStab:  Solving for Uy, Initial residual = 0.0370682, Final residual = 0.000939989, No Iterations 1
DILUPBiCGStab:  Solving for Uz, Initial residual = 0.0154776, Final residual = 0.000420139, No Iterations 1
DILUPBiCGStab:  Solving for e, Initial residual = 0.00521523, Final residual = 8.1826e-05, No Iterations 1
DICPCG:  Solving for p_rgh, Initial residual = 0.137614, Final residual = 0.00102523, No Iterations 88
time step continuity errors : sum local = 2.6882, global = 0.315863, cumulative = -8.26207
DILUPBiCGStab:  Solving for epsilon, Initial residual = 0, Final residual = 0, No Iterations 0
DILUPBiCGStab:  Solving for k, Initial residual = 0.0106677, Final residual = 0.000223786, No Iterations 1
ExecutionTime = 0.3 s  ClockTime = 1 s

Time = 32

DILUPBiCGStab:  Solving for Ux, Initial residual = 0.0471655, Final residual = 0.00156974, No Iterations 1
DILUPBiCGStab:  Solving for Uy, Initial residual = 0.0351058, Final residual = 0.000918778, No Iterations 1
DILUPBiCGStab:  Solving for Uz, Initial residual = 0.0147212, Final residual = 0.00040313, No Iterations 1
DILUPBiCGStab:  Solving for e, Initial residual = 0.00501626, Final residual = 7.72147e-05, No Iterations 1
DICPCG:  Solving for p_rgh, Initial residual = 0.128989, Final residual = 0.000903844, No Iterations 100
time step continuity errors : sum local = 2.39391, global = 0.00786912, cumulative = -8.2542
DILUPBiCGStab:  Solving for epsilon, Initial residual = 0, Final residual = 0, No Iterations 0
DILUPBiCGStab:  Solving for k, Initial residual = 0.010172, Final residual = 0.000216357, No Iterations 1
ExecutionTime = 0.31 s  ClockTime = 1 s

Time = 33

DILUPBiCGStab:  Solving for Ux, Initial residual = 0.0361242, Final residual = 0.00123597, No Iterations 1
DILUPBiCGStab:  Solving for Uy, Initial residual = 0.0318999, Final residual = 0.000880609, No Iterations 1
DILUPBiCGStab:  Solving for Uz, Initial residual = 0.0137245, Final residual = 0.000375612, No Iterations 1
DILUPBiCGStab:  Solving for e, Initial residual = 0.00479362, Final residual = 7.48277e-05, No Iterations 1
DICPCG:  Solving for p_rgh, Initial residual = 0.122663, Final residual = 0.000979526, No Iterations 100
time step continuity errors : sum local = 2.48045, global = -0.00264224, cumulative = -8.25684
DILUPBiCGStab:  Solving for epsilon, Initial residual = 0, Final residual = 0, No Iterations 0
DILUPBiCGStab:  Solving for k, Initial residual = 0.00957561, Final residual = 0.000205884, No Iterations 1
ExecutionTime = 0.32 s  ClockTime = 1 s

Time = 34

DILUPBiCGStab:  Solving for Ux, Initial residual = 0.0261641, Final residual = 0.000825864, No Iterations 1
DILUPBiCGStab:  Solving for Uy, Initial residual = 0.0291883, Final residual = 0.000816001, No Iterations 1
DILUPBiCGStab:  Solving for Uz, Initial residual = 0.01248, Final residual = 0.000343937, No Iterations 1
DILUPBiCGStab:  Solving for e, Initial residual = 0.00459536, Final residual = 7.18995e-05, No Iterations 1
DICPCG:  Solving for p_rgh, Initial residual = 0.121742, Final residual = 0.000995808, No Iterations 95
time step continuity errors : sum local = 2.33407, global = 0.0163679, cumulative = -8.24048
DILUPBiCGStab:  Solving for epsilon, Initial residual = 0, Final residual = 0, No Iterations 0
DILUPBiCGStab:  Solving for k, Initial residual = 0.00863289, Final residual = 0.000187486, No Iterations 1
ExecutionTime = 0.32 s  ClockTime = 1 s

Time = 35

DILUPBiCGStab:  Solving for Ux, Initial residual = 0.0212018, Final residual = 0.000507259, No Iterations 1
DILUPBiCGStab:  Solving for Uy, Initial residual = 0.0263231, Final residual = 0.00073423, No Iterations 1
DILUPBiCGStab:  Solving for Uz, Initial residual = 0.0114168, Final residual = 0.000314047, No Iterations 1
DILUPBiCGStab:  Solving for e, Initial residual = 0.00435771, Final residual = 6.90464e-05, No Iterations 1
DICPCG:  Solving for p_rgh, Initial residual = 0.124556, Final residual = 0.00121514, No Iterations 98
time step continuity errors : sum local = 2.59121, global = 0.0218745, cumulative = -8.2186
DILUPBiCGStab:  Solving for epsilon, Initial residual = 0, Final residual = 0, No Iterations 0
DILUPBiCGStab:  Solving for k, Initial residual = 0.0078469, Final residual = 0.000166717, No Iterations 1
ExecutionTime = 0.33 s  ClockTime = 1 s

Time = 36

DILUPBiCGStab:  Solving for Ux, Initial residual = 0.018161, Final residual = 0.000363554, No Iterations 1
DILUPBiCGStab:  Solving for Uy, Initial residual = 0.0241129, Final residual = 0.000661197, No Iterations 1
DILUPBiCGStab:  Solving for Uz, Initial residual = 0.0107254, Final residual = 0.000288449, No Iterations 1
DILUPBiCGStab:  Solving for e, Initial residual = 0.00415393, Final residual = 6.6801e-05, No Iterations 1
DICPCG:  Solving for p_rgh, Initial residual = 0.134507, Final residual = 0.0011646, No Iterations 101
time step continuity errors : sum local = 2.3165, global = -0.001878, cumulative = -8.22048
DILUPBiCGStab:  Solving for epsilon, Initial residual = 0, Final residual = 0, No Iterations 0
DILUPBiCGStab:  Solving for k, Initial residual = 0.00710253, Final residual = 0.000148014, No Iterations 1
ExecutionTime = 0.33 s  ClockTime = 1 s

Time = 37

DILUPBiCGStab:  Solving for Ux, Initial residual = 0.0167446, Final residual = 0.000403041, No Iterations 1
DILUPBiCGStab:  Solving for Uy, Initial residual = 0.0231401, Final residual = 0.000632912, No Iterations 1
DILUPBiCGStab:  Solving for Uz, Initial residual = 0.0104838, Final residual = 0.00027607, No Iterations 1
DILUPBiCGStab:  Solving for e, Initial residual = 0.0039841, Final residual = 6.47701e-05, No Iterations 1
DICPCG:  Solving for p_rgh, Initial residual = 0.137551, Final residual = 0.00106777, No Iterations 101
time step continuity errors : sum local = 2.05093, global = -0.00594456, cumulative = -8.22642
DILUPBiCGStab:  Solving for epsilon, Initial residual = 0, Final residual = 0, No Iterations 0
DILUPBiCGStab:  Solving for k, Initial residual = 0.00655296, Final residual = 0.000131522, No Iterations 1
ExecutionTime = 0.34 s  ClockTime = 1 s

Time = 38

DILUPBiCGStab:  Solving for Ux, Initial residual = 0.0170992, Final residual = 0.000477334, No Iterations 1
DILUPBiCGStab:  Solving for Uy, Initial residual = 0.0235366, Final residual = 0.000625638, No Iterations 1
DILUPBiCGStab:  Solving for Uz, Initial residual = 0.0102573, Final residual = 0.000269551, No Iterations 1
DILUPBiCGStab:  Solving for e, Initial residual = 0.00382, Final residual = 6.2754e-05, No Iterations 1
DICPCG:  Solving for p_rgh, Initial residual = 0.13319, Final residual = 0.00123833, No Iterations 99
time step continuity errors : sum local = 2.37434, global = 0.0124836, cumulative = -8.21394
DILUPBiCGStab:  Solving for epsilon, Initial residual = 0, Final residual = 0, No Iterations 0
DILUPBiCGStab:  Solving for k, Initial residual = 0.00650244, Final residual = 0.000127379, No Iterations 1
ExecutionTime = 0.35 s  ClockTime = 1 s

Time = 39

DILUPBiCGStab:  Solving for Ux, Initial residual = 0.0162776, Final residual = 0.000534726, No Iterations 1
DILUPBiCGStab:  Solving for Uy, Initial residual = 0.0237532, Final residual = 0.000607478, No Iterations 1
DILUPBiCGStab:  Solving for Uz, Initial residual = 0.00996916, Final residual = 0.000266748, No Iterations 1
DILUPBiCGStab:  Solving for e, Initial residual = 0.00375825, Final residual = 6.12013e-05, No Iterations 1
DICPCG:  Solving for p_rgh, Initial residual = 0.117799, Final residual = 0.000756271, No Iterations 100
time step continuity errors : sum local = 1.51158, global = 0.00481701, cumulative = -8.20912
DILUPBiCGStab:  Solving for epsilon, Initial residual = 0, Final residual = 0, No Iterations 0
DILUPBiCGStab:  Solving for k, Initial residual = 0.00700813, Final residual = 0.000130466, No Iterations 1
ExecutionTime = 0.35 s  ClockTime = 1 s

Time = 40

DILUPBiCGStab:  Solving for Ux, Initial residual = 0.0195781, Final residual = 0.000639253, No Iterations 1
DILUPBiCGStab:  Solving for Uy, Initial residual = 0.0242979, Final residual = 0.000597583, No Iterations 1
DILUPBiCGStab:  Solving for Uz, Initial residual = 0.00968785, Final residual = 0.000260523, No Iterations 1
DILUPBiCGStab:  Solving for e, Initial residual = 0.00380197, Final residual = 6.11752e-05, No Iterations 1
DICPCG:  Solving for p_rgh, Initial residual = 0.106447, Final residual = 0.00072871, No Iterations 101
time step continuity errors : sum local = 1.56242, global = 0.00378802, cumulative = -8.20533
DILUPBiCGStab:  Solving for epsilon, Initial residual = 0, Final residual = 0, No Iterations 0
DILUPBiCGStab:  Solving for k, Initial residual = 0.00711504, Final residual = 0.000131047, No Iterations 1
ExecutionTime = 0.36 s  ClockTime = 1 s

Time = 41

DILUPBiCGStab:  Solving for Ux, Initial residual = 0.0219428, Final residual = 0.000671841, No Iterations 1
DILUPBiCGStab:  Solving for Uy, Initial residual = 0.0245013, Final residual = 0.000589796, No Iterations 1
DILUPBiCGStab:  Solving for Uz, Initial residual = 0.00932089, Final residual = 0.000250292, No Iterations 1
DILUPBiCGStab:  Solving for e, Initial residual = 0.00382508, Final residual = 6.1687e-05, No Iterations 1
DICPCG:  Solving for p_rgh, Initial residual = 0.105525, Final residual = 0.000928422, No Iterations 101
time step continuity errors : sum local = 2.08054, global = 0.0116084, cumulative = -8.19373
DILUPBiCGStab:  Solving for epsilon, Initial residual = 0, Final residual = 0, No Iterations 0
DILUPBiCGStab:  Solving for k, Initial residual = 0.0066804, Final residual = 0.000124827, No Iterations 1
ExecutionTime = 0.37 s  ClockTime = 1 s

Time = 42

DILUPBiCGStab:  Solving for Ux, Initial residual = 0.0208388, Final residual = 0.000562351, No Iterations 1
DILUPBiCGStab:  Solving for Uy, Initial residual = 0.0248701, Final residual = 0.000608406, No Iterations 1
DILUPBiCGStab:  Solving for Uz, Initial residual = 0.00958688, Final residual = 0.00025026, No Iterations 1
DILUPBiCGStab:  Solving for e, Initial residual = 0.00381023, Final residual = 6.14771e-05, No Iterations 1
DICPCG:  Solving for p_rgh, Initial residual = 0.113798, Final residual = 0.000870295, No Iterations 101
time step continuity errors : sum local = 1.90593, global = 0.00675508, cumulative = -8.18697
DILUPBiCGStab:  Solving for epsilon, Initial residual = 0, Final residual = 0, No Iterations 0
DILUPBiCGStab:  Solving for k, Initial residual = 0.0058986, Final residual = 0.00011183, No Iterations 1
ExecutionTime = 0.37 s  ClockTime = 1 s

Time = 43

DILUPBiCGStab:  Solving for Ux, Initial residual = 0.0199047, Final residual = 0.000560496, No Iterations 1
DILUPBiCGStab:  Solving for Uy, Initial residual = 0.0267588, Final residual = 0.000661533, No Iterations 1
DILUPBiCGStab:  Solving for Uz, Initial residual = 0.0096136, Final residual = 0.000245139, No Iterations 1
DILUPBiCGStab:  Solving for e, Initial residual = 0.00370176, Final residual = 6.04961e-05, No Iterations 1
DICPCG:  Solving for p_rgh, Initial residual = 0.132576, Final residual = 0.00107244, No Iterations 100
time step continuity errors : sum local = 2.1569, global = -0.0131753, cumulative = -8.20015
DILUPBiCGStab:  Solving for epsilon, Initial residual = 0, Final residual = 0, No Iterations 0
DILUPBiCGStab:  Solving for k, Initial residual = 0.00580166, Final residual = 0.000104948, No Iterations 1
ExecutionTime = 0.38 s  ClockTime = 1 s

Time = 44

DILUPBiCGStab:  Solving for Ux, Initial residual = 0.0255982, Final residual = 0.000903831, No Iterations 1
DILUPBiCGStab:  Solving for Uy, Initial residual = 0.0308002, Final residual = 0.000735378, No Iterations 1
DILUPBiCGStab:  Solving for Uz, Initial residual = 0.00954811, Final residual = 0.000242424, No Iterations 1
DILUPBiCGStab:  Solving for e, Initial residual = 0.00362389, Final residual = 5.90484e-05, No Iterations 1
DICPCG:  Solving for p_rgh, Initial residual = 0.164672, Final residual = 0.00149623, No Iterations 101
time step continuity errors : sum local = 2.89776, global = -0.0130751, cumulative = -8.21322
DILUPBiCGStab:  Solving for epsilon, Initial residual = 0, Final residual = 0, No Iterations 0
DILUPBiCGStab:  Solving for k, Initial residual = 0.00539388, Final residual = 0.000102222, No Iterations 1
ExecutionTime = 0.38 s  ClockTime = 1 s

Time = 45

DILUPBiCGStab:  Solving for Ux, Initial residual = 0.0253454, Final residual = 0.000914656, No Iterations 1
DILUPBiCGStab:  Solving for Uy, Initial residual = 0.0323385, Final residual = 0.000750535, No Iterations 1
DILUPBiCGStab:  Solving for Uz, Initial residual = 0.00928001, Final residual = 0.000233995, No Iterations 1
DILUPBiCGStab:  Solving for e, Initial residual = 0.00353641, Final residual = 5.82582e-05, No Iterations 1
DICPCG:  Solving for p_rgh, Initial residual = 0.172994, Final residual = 0.00160179, No Iterations 100
time step continuity errors : sum local = 3.24734, global = -0.00988807, cumulative = -8.22311
DILUPBiCGStab:  Solving for epsilon, Initial residual = 0, Final residual = 0, No Iterations 0
DILUPBiCGStab:  Solving for k, Initial residual = 0.00592138, Final residual = 0.000105227, No Iterations 1
ExecutionTime = 0.39 s  ClockTime = 1 s

Time = 46

DILUPBiCGStab:  Solving for Ux, Initial residual = 0.0154448, Final residual = 0.000501431, No Iterations 1
DILUPBiCGStab:  Solving for Uy, Initial residual = 0.0287635, Final residual = 0.000674842, No Iterations 1
DILUPBiCGStab:  Solving for Uz, Initial residual = 0.00886418, Final residual = 0.00022975, No Iterations 1
DILUPBiCGStab:  Solving for e, Initial residual = 0.00348544, Final residual = 5.7766e-05, No Iterations 1
DICPCG:  Solving for p_rgh, Initial residual = 0.155029, Final residual = 0.0013207, No Iterations 101
time step continuity errors : sum local = 2.48536, global = -0.000758062, cumulative = -8.22387
DILUPBiCGStab:  Solving for epsilon, Initial residual = 0, Final residual = 0, No Iterations 0
DILUPBiCGStab:  Solving for k, Initial residual = 0.0070613, Final residual = 0.000120537, No Iterations 1
ExecutionTime = 0.4 s  ClockTime = 1 s

Time = 47

DILUPBiCGStab:  Solving for Ux, Initial residual = 0.0205478, Final residual = 0.000556346, No Iterations 1
DILUPBiCGStab:  Solving for Uy, Initial residual = 0.0255485, Final residual = 0.000627101, No Iterations 1
DILUPBiCGStab:  Solving for Uz, Initial residual = 0.00860449, Final residual = 0.000223671, No Iterations 1
DILUPBiCGStab:  Solving for e, Initial residual = 0.00358667, Final residual = 5.92716e-05, No Iterations 1
DICPCG:  Solving for p_rgh, Initial residual = 0.130795, Final residual = 0.000908125, No Iterations 102
time step continuity errors : sum local = 1.76484, global = 0.00672334, cumulative = -8.21714
DILUPBiCGStab:  Solving for epsilon, Initial residual = 0, Final residual = 0, No Iterations 0
DILUPBiCGStab:  Solving for k, Initial residual = 0.00898068, Final residual = 0.000143483, No Iterations 1
ExecutionTime = 0.4 s  ClockTime = 1 s

Time = 48

DILUPBiCGStab:  Solving for Ux, Initial residual = 0.0376464, Final residual = 0.00118306, No Iterations 1
DILUPBiCGStab:  Solving for Uy, Initial residual = 0.0277351, Final residual = 0.000672563, No Iterations 1
DILUPBiCGStab:  Solving for Uz, Initial residual = 0.00892832, Final residual = 0.000227701, No Iterations 1
DILUPBiCGStab:  Solving for e, Initial residual = 0.00382738, Final residual = 6.50693e-05, No Iterations 1
DICPCG:  Solving for p_rgh, Initial residual = 0.138664, Final residual = 0.00124693, No Iterations 101
time step continuity errors : sum local = 2.84763, global = 0.00551837, cumulative = -8.21163
DILUPBiCGStab:  Solving for epsilon, Initial residual = 0, Final residual = 0, No Iterations 0
DILUPBiCGStab:  Solving for k, Initial residual = 0.00926499, Final residual = 0.00014815, No Iterations 1
ExecutionTime = 0.41 s  ClockTime = 1 s

Time = 49

DILUPBiCGStab:  Solving for Ux, Initial residual = 0.0420674, Final residual = 0.00138925, No Iterations 1
DILUPBiCGStab:  Solving for Uy, Initial residual = 0.0296693, Final residual = 0.000753216, No Iterations 1
DILUPBiCGStab:  Solving for Uz, Initial residual = 0.00932213, Final residual = 0.000213024, No Iterations 1
DILUPBiCGStab:  Solving for e, Initial residual = 0.00394037, Final residual = 6.56634e-05, No Iterations 1
DICPCG:  Solving for p_rgh, Initial residual = 0.144709, Final residual = 0.00118511, No Iterations 101
time step continuity errors : sum local = 2.97027, global = 0.00874421, cumulative = -8.20288
DILUPBiCGStab:  Solving for epsilon, Initial residual = 0, Final residual = 0, No Iterations 0
DILUPBiCGStab:  Solving for k, Initial residual = 0.00838879, Final residual = 0.000123438, No Iterations 1
ExecutionTime = 0.42 s  ClockTime = 1 s

Time = 50

DILUPBiCGStab:  Solving for Ux, Initial residual = 0.0330953, Final residual = 0.00109909, No Iterations 1
DILUPBiCGStab:  Solving for Uy, Initial residual = 0.0327032, Final residual = 0.000860622, No Iterations 1
DILUPBiCGStab:  Solving for Uz, Initial residual = 0.00949812, Final residual = 0.000198266, No Iterations 1
DILUPBiCGStab:  Solving for e, Initial residual = 0.00398162, Final residual = 6.69552e-05, No Iterations 1
DICPCG:  Solving for p_rgh, Initial residual = 0.137098, Final residual = 0.00111777, No Iterations 101
time step continuity errors : sum local = 2.76699, global = -0.000888757, cumulative = -8.20377
DILUPBiCGStab:  Solving for epsilon, Initial residual = 0, Final residual = 0, No Iterations 0
DILUPBiCGStab:  Solving for k, Initial residual = 0.00716454, Final residual = 0.000110557, No Iterations 1
ExecutionTime = 0.42 s  ClockTime = 1 s

Time = 51

DILUPBiCGStab:  Solving for Ux, Initial residual = 0.0196146, Final residual = 0.000590515, No Iterations 1
DILUPBiCGStab:  Solving for Uy, Initial residual = 0.0320554, Final residual = 0.00091827, No Iterations 1
DILUPBiCGStab:  Solving for Uz, Initial residual = 0.00870583, Final residual = 0.000186013, No Iterations 1
DILUPBiCGStab:  Solving for e, Initial residual = 0.00379465, Final residual = 6.64521e-05, No Iterations 1
DICPCG:  Solving for p_rgh, Initial residual = 0.132906, Final residual = 0.000824758, No Iterations 101
time step continuity errors : sum local = 1.82582, global = -0.00375182, cumulative = -8.20752
DILUPBiCGStab:  Solving for epsilon, Initial residual = 0, Final residual = 0, No Iterations 0
DILUPBiCGStab:  Solving for k, Initial residual = 0.00656507, Final residual = 0.000100453, No Iterations 1
ExecutionTime = 0.43 s  ClockTime = 1 s

Time = 52

DILUPBiCGStab:  Solving for Ux, Initial residual = 0.0171856, Final residual = 0.000476355, No Iterations 1
DILUPBiCGStab:  Solving for Uy, Initial residual = 0.0286448, Final residual = 0.000779262, No Iterations 1
DILUPBiCGStab:  Solving for Uz, Initial residual = 0.00784804, Final residual = 0.000179945, No Iterations 1
DILUPBiCGStab:  Solving for e, Initial residual = 0.0035928, Final residual = 6.38686e-05, No Iterations 1
DICPCG:  Solving for p_rgh, Initial residual = 0.142856, Final residual = 0.00116131, No Iterations 102
time step continuity errors : sum local = 2.25454, global = 0.00759493, cumulative = -8.19993
DILUPBiCGStab:  Solving for epsilon, Initial residual = 0, Final residual = 0, No Iterations 0
DILUPBiCGStab:  Solving for k, Initial residual = 0.00604907, Final residual = 9.19624e-05, No Iterations 1
ExecutionTime = 0.43 s  ClockTime = 1 s

Time = 53

DILUPBiCGStab:  Solving for Ux, Initial residual = 0.0222778, Final residual = 0.000622662, No Iterations 1
DILUPBiCGStab:  Solving for Uy, Initial residual = 0.0265744, Final residual = 0.000644987, No Iterations 1
DILUPBiCGStab:  Solving for Uz, Initial residual = 0.00727241, Final residual = 0.000174913, No Iterations 1
DILUPBiCGStab:  Solving for e, Initial residual = 0.00339473, Final residual = 6.00707e-05, No Iterations 1
DICPCG:  Solving for p_rgh, Initial residual = 0.14176, Final residual = 0.00135861, No Iterations 103
time step continuity errors : sum local = 2.75614, global = 0.0103405, cumulative = -8.18959
DILUPBiCGStab:  Solving for epsilon, Initial residual = 0, Final residual = 0, No Iterations 0
DILUPBiCGStab:  Solving for k, Initial residual = 0.00667538, Final residual = 9.57949e-05, No Iterations 1
ExecutionTime = 0.44 s  ClockTime = 1 s

Time = 54

DILUPBiCGStab:  Solving for Ux, Initial residual = 0.0238062, Final residual = 0.000665784, No Iterations 1
DILUPBiCGStab:  Solving for Uy, Initial residual = 0.0256106, Final residual = 0.000648226, No Iterations 1
DILUPBiCGStab:  Solving for Uz, Initial residual = 0.00759895, Final residual = 0.000182713, No Iterations 1
DILUPBiCGStab:  Solving for e, Initial residual = 0.00324773, Final residual = 5.81747e-05, No Iterations 1
DICPCG:  Solving for p_rgh, Initial residual = 0.137671, Final residual = 0.00128621, No Iterations 102
time step continuity errors : sum local = 2.7407, global = 0.0152918, cumulative = -8.1743
DILUPBiCGStab:  Solving for epsilon, Initial residual = 0, Final residual = 0, No Iterations 0
DILUPBiCGStab:  Solving for k, Initial residual = 0.00550907, Final residual = 8.46096e-05, No Iterations 1
ExecutionTime = 0.45 s  ClockTime = 1 s

Time = 55

DILUPBiCGStab:  Solving for Ux, Initial residual = 0.0190098, Final residual = 0.000549268, No Iterations 1
DILUPBiCGStab:  Solving for Uy, Initial residual = 0.0249014, Final residual = 0.000637333, No Iterations 1
DILUPBiCGStab:  Solving for Uz, Initial residual = 0.00751611, Final residual = 0.000183643, No Iterations 1
DILUPBiCGStab:  Solving for e, Initial residual = 0.00319807, Final residual = 5.84224e-05, No Iterations 1
DICPCG:  Solving for p_rgh, Initial residual = 0.141165, Final residual = 0.000997775, No Iterations 101
time step continuity errors : sum local = 2.17397, global = -0.00790508, cumulative = -8.1822
DILUPBiCGStab:  Solving for epsilon, Initial residual = 0, Final residual = 0, No Iterations 0
DILUPBiCGStab:  Solving for k, Initial residual = 0.00559429, Final residual = 8.1042e-05, No Iterations 1
ExecutionTime = 0.45 s  ClockTime = 1 s

Time = 56

DILUPBiCGStab:  Solving for Ux, Initial residual = 0.0132202, Final residual = 0.000379748, No Iterations 1
DILUPBiCGStab:  Solving for Uy, Initial residual = 0.0233418, Final residual = 0.000600469, No Iterations 1
DILUPBiCGStab:  Solving for Uz, Initial residual = 0.00725819, Final residual = 0.000178179, No Iterations 1
DILUPBiCGStab:  Solving for e, Initial residual = 0.00315447, Final residual = 5.94652e-05, No Iterations 1
DICPCG:  Solving for p_rgh, Initial residual = 0.139165, Final residual = 0.000959544, No Iterations 102
time step continuity errors : sum local = 1.80493, global = 0.00147629, cumulative = -8.18072
DILUPBiCGStab:  Solving for epsilon, Initial residual = 0, Final residual = 0, No Iterations 0
DILUPBiCGStab:  Solving for k, Initial residual = 0.00532356, Final residual = 7.76916e-05, No Iterations 1
ExecutionTime = 0.46 s  ClockTime = 1 s

Time = 57

DILUPBiCGStab:  Solving for Ux, Initial residual = 0.0122329, Final residual = 0.00036226, No Iterations 1
DILUPBiCGStab:  Solving for Uy, Initial residual = 0.0211331, Final residual = 0.00055412, No Iterations 1
DILUPBiCGStab:  Solving for Uz, Initial residual = 0.00696653, Final residual = 0.000174883, No Iterations 1
DILUPBiCGStab:  Solving for e, Initial residual = 0.00318823, Final residual = 6.02726e-05, No Iterations 1
DICPCG:  Solving for p_rgh, Initial residual = 0.13055, Final residual = 0.000960762, No Iterations 102
time step continuity errors : sum local = 1.74619, global = 0.00142272, cumulative = -8.1793
DILUPBiCGStab:  Solving for epsilon, Initial residual = 0, Final residual = 0, No Iterations 0
DILUPBiCGStab:  Solving for k, Initial residual = 0.0045125, Final residual = 6.97135e-05, No Iterations 1
ExecutionTime = 0.46 s  ClockTime = 1 s

Time = 58

DILUPBiCGStab:  Solving for Ux, Initial residual = 0.0123499, Final residual = 0.000368061, No Iterations 1
DILUPBiCGStab:  Solving for Uy, Initial residual = 0.0200374, Final residual = 0.000515153, No Iterations 1
DILUPBiCGStab:  Solving for Uz, Initial residual = 0.00691377, Final residual = 0.000170688, No Iterations 1
DILUPBiCGStab:  Solving for e, Initial residual = 0.00317598, Final residual = 6.02932e-05, No Iterations 1
DICPCG:  Solving for p_rgh, Initial residual = 0.118415, Final residual = 0.00104141, No Iterations 102
time step continuity errors : sum local = 1.92488, global = -0.00610784, cumulative = -8.18541
DILUPBiCGStab:  Solving for epsilon, Initial residual = 0, Final residual = 0, No Iterations 0
DILUPBiCGStab:  Solving for k, Initial residual = 0.00467809, Final residual = 7.32511e-05, No Iterations 1
ExecutionTime = 0.47 s  ClockTime = 1 s

Time = 59

DILUPBiCGStab:  Solving for Ux, Initial residual = 0.0121777, Final residual = 0.00035902, No Iterations 1
DILUPBiCGStab:  Solving for Uy, Initial residual = 0.0212117, Final residual = 0.000487927, No Iterations 1
DILUPBiCGStab:  Solving for Uz, Initial residual = 0.00681681, Final residual = 0.00016478, No Iterations 1
DILUPBiCGStab:  Solving for e, Initial residual = 0.00314534, Final residual = 6.04462e-05, No Iterations 1
DICPCG:  Solving for p_rgh, Initial residual = 0.109131, Final residual = 0.000890166, No Iterations 82
time step continuity errors : sum local = 1.65642, global = -0.194491, cumulative = -8.3799
DILUPBiCGStab:  Solving for epsilon, Initial residual = 0, Final residual = 0, No Iterations 0
DILUPBiCGStab:  Solving for k, Initial residual = 0.0043279, Final residual = 7.17447e-05, No Iterations 1
ExecutionTime = 0.48 s  ClockTime = 1 s

Time = 60

DILUPBiCGStab:  Solving for Ux, Initial residual = 0.0111615, Final residual = 0.000349498, No Iterations 1
DILUPBiCGStab:  Solving for Uy, Initial residual = 0.0203567, Final residual = 0.000453119, No Iterations 1
DILUPBiCGStab:  Solving for Uz, Initial residual = 0.00685043, Final residual = 0.000164337, No Iterations 1
DILUPBiCGStab:  Solving for e, Initial residual = 0.00310904, Final residual = 6.08485e-05, No Iterations 1
DICPCG:  Solving for p_rgh, Initial residual = 0.103259, Final residual = 0.00095733, No Iterations 101
time step continuity errors : sum local = 1.78075, global = 0.00133588, cumulative = -8.37856
DILUPBiCGStab:  Solving for epsilon, Initial residual = 0, Final residual = 0, No Iterations 0
DILUPBiCGStab:  Solving for k, Initial residual = 0.0040442, Final residual = 6.67354e-05, No Iterations 1
ExecutionTime = 0.48 s  ClockTime = 1 s

Time = 61

DILUPBiCGStab:  Solving for Ux, Initial residual = 0.0108107, Final residual = 0.000363441, No Iterations 1
DILUPBiCGStab:  Solving for Uy, Initial residual = 0.0191128, Final residual = 0.000423299, No Iterations 1
DILUPBiCGStab:  Solving for Uz, Initial residual = 0.00667151, Final residual = 0.000160009, No Iterations 1
DILUPBiCGStab:  Solving for e, Initial residual = 0.00313263, Final residual = 6.01833e-05, No Iterations 1
DICPCG:  Solving for p_rgh, Initial residual = 0.0987671, Final residual = 0.000944661, No Iterations 101
time step continuity errors : sum local = 1.74175, global = 0.00242605, cumulative = -8.37614
DILUPBiCGStab:  Solving for epsilon, Initial residual = 0, Final residual = 0, No Iterations 0
DILUPBiCGStab:  Solving for k, Initial residual = 0.0039075, Final residual = 6.62826e-05, No Iterations 1
ExecutionTime = 0.49 s  ClockTime = 1 s

Time = 62

DILUPBiCGStab:  Solving for Ux, Initial residual = 0.0126366, Final residual = 0.000446867, No Iterations 1
DILUPBiCGStab:  Solving for Uy, Initial residual = 0.0175856, Final residual = 0.000397149, No Iterations 1
DILUPBiCGStab:  Solving for Uz, Initial residual = 0.00662861, Final residual = 0.000159522, No Iterations 1
DILUPBiCGStab:  Solving for e, Initial residual = 0.00313774, Final residual = 5.82303e-05, No Iterations 1
DICPCG:  Solving for p_rgh, Initial residual = 0.0992356, Final residual = 0.000970827, No Iterations 100
time step continuity errors : sum local = 1.79548, global = 0.0103369, cumulative = -8.3658
DILUPBiCGStab:  Solving for epsilon, Initial residual = 0, Final residual = 0, No Iterations 0
DILUPBiCGStab:  Solving for k, Initial residual = 0.00432673, Final residual = 6.57802e-05, No Iterations 1
ExecutionTime = 0.5 s  ClockTime = 1 s

Time = 63

DILUPBiCGStab:  Solving for Ux, Initial residual = 0.0147546, Final residual = 0.000528813, No Iterations 1
DILUPBiCGStab:  Solving for Uy, Initial residual = 0.0167895, Final residual = 0.000412807, No Iterations 1
DILUPBiCGStab:  Solving for Uz, Initial residual = 0.00651211, Final residual = 0.000160794, No Iterations 1
DILUPBiCGStab:  Solving for e, Initial residual = 0.00320944, Final residual = 5.89651e-05, No Iterations 1
DICPCG:  Solving for p_rgh, Initial residual = 0.0972345, Final residual = 0.000772098, No Iterations 101
time step continuity errors : sum local = 1.4449, global = 0.00814059, cumulative = -8.35766
DILUPBiCGStab:  Solving for epsilon, Initial residual = 0, Final residual = 0, No Iterations 0
DILUPBiCGStab:  Solving for k, Initial residual = 0.00432932, Final residual = 6.40435e-05, No Iterations 1
ExecutionTime = 0.5 s  ClockTime = 1 s

Time = 64

DILUPBiCGStab:  Solving for Ux, Initial residual = 0.0151294, Final residual = 0.000552228, No Iterations 1
DILUPBiCGStab:  Solving for Uy, Initial residual = 0.016946, Final residual = 0.000402543, No Iterations 1
DILUPBiCGStab:  Solving for Uz, Initial residual = 0.00642717, Final residual = 0.000156036, No Iterations 1
DILUPBiCGStab:  Solving for e, Initial residual = 0.00318548, Final residual = 5.8443e-05, No Iterations 1
DICPCG:  Solving for p_rgh, Initial residual = 0.0970919, Final residual = 0.000785643, No Iterations 88
time step continuity errors : sum local = 1.47671, global = -0.0337822, cumulative = -8.39144
DILUPBiCGStab:  Solving for epsilon, Initial residual = 0, Final residual = 0, No Iterations 0
DILUPBiCGStab:  Solving for k, Initial residual = 0.00426253, Final residual = 6.22388e-05, No Iterations 1
ExecutionTime = 0.51 s  ClockTime = 1 s

Time = 65

DILUPBiCGStab:  Solving for Ux, Initial residual = 0.0136069, Final residual = 0.000497458, No Iterations 1
DILUPBiCGStab:  Solving for Uy, Initial residual = 0.0162611, Final residual = 0.0003924, No Iterations 1
DILUPBiCGStab:  Solving for Uz, Initial residual = 0.00636098, Final residual = 0.000157102, No Iterations 1
DILUPBiCGStab:  Solving for e, Initial residual = 0.0031933, Final residual = 5.83617e-05, No Iterations 1
DICPCG:  Solving for p_rgh, Initial residual = 0.0960895, Final residual = 0.000923933, No Iterations 101
time step continuity errors : sum local = 1.72502, global = -0.0024965, cumulative = -8.39394
DILUPBiCGStab:  Solving for epsilon, Initial residual = 0, Final residual = 0, No Iterations 0
DILUPBiCGStab:  Solving for k, Initial residual = 0.0040103, Final residual = 5.8789e-05, No Iterations 1
ExecutionTime = 0.51 s  ClockTime = 1 s

Time = 66

DILUPBiCGStab:  Solving for Ux, Initial residual = 0.0104054, Final residual = 0.000373464, No Iterations 1
DILUPBiCGStab:  Solving for Uy, Initial residual = 0.0159857, Final residual = 0.00037322, No Iterations 1
DILUPBiCGStab:  Solving for Uz, Initial residual = 0.00628033, Final residual = 0.000152941, No Iterations 1
DILUPBiCGStab:  Solving for e, Initial residual = 0.00312395, Final residual = 5.71948e-05, No Iterations 1
DICPCG:  Solving for p_rgh, Initial residual = 0.0937517, Final residual = 0.000759739, No Iterations 102
time step continuity errors : sum local = 1.38659, global = 0.00168615, cumulative = -8.39225
DILUPBiCGStab:  Solving for epsilon, Initial residual = 0, Final residual = 0, No Iterations 0
DILUPBiCGStab:  Solving for k, Initial residual = 0.00362894, Final residual = 5.69287e-05, No Iterations 1
ExecutionTime = 0.52 s  ClockTime = 1 s

Time = 67

DILUPBiCGStab:  Solving for Ux, Initial residual = 0.00869546, Final residual = 0.000256833, No Iterations 1
DILUPBiCGStab:  Solving for Uy, Initial residual = 0.015961, Final residual = 0.000354419, No Iterations 1
DILUPBiCGStab:  Solving for Uz, Initial residual = 0.00605288, Final residual = 0.000148573, No Iterations 1
DILUPBiCGStab:  Solving for e, Initial residual = 0.003004, Final residual = 5.49746e-05, No Iterations 1
DICPCG:  Solving for p_rgh, Initial residual = 0.0945937, Final residual = 0.000767448, No Iterations 101
time step continuity errors : sum local = 1.33191, global = -0.00469318, cumulative = -8.39695
DILUPBiCGStab:  Solving for epsilon, Initial residual = 0, Final residual = 0, No Iterations 0
DILUPBiCGStab:  Solving for k, Initial residual = 0.00382284, Final residual = 5.37425e-05, No Iterations 1
ExecutionTime = 0.53 s  ClockTime = 1 s

Time = 68

DILUPBiCGStab:  Solving for Ux, Initial residual = 0.0107408, Final residual = 0.000355842, No Iterations 1
DILUPBiCGStab:  Solving for Uy, Initial residual = 0.015218, Final residual = 0.00034644, No Iterations 1
DILUPBiCGStab:  Solving for Uz, Initial residual = 0.00587993, Final residual = 0.000143957, No Iterations 1
DILUPBiCGStab:  Solving for e, Initial residual = 0.00287831, Final residual = 5.18624e-05, No Iterations 1
DICPCG:  Solving for p_rgh, Initial residual = 0.100939, Final residual = 0.000729438, No Iterations 102
time step continuity errors : sum local = 1.21547, global = 0.000660839, cumulative = -8.39629
DILUPBiCGStab:  Solving for epsilon, Initial residual = 0, Final residual = 0, No Iterations 0
DILUPBiCGStab:  Solving for k, Initial residual = 0.00337855, Final residual = 5.14656e-05, No Iterations 1
ExecutionTime = 0.53 s  ClockTime = 1 s

Time = 69

DILUPBiCGStab:  Solving for Ux, Initial residual = 0.0129966, Final residual = 0.000477154, No Iterations 1
DILUPBiCGStab:  Solving for Uy, Initial residual = 0.0153627, Final residual = 0.000344909, No Iterations 1
DILUPBiCGStab:  Solving for Uz, Initial residual = 0.00565134, Final residual = 0.000143331, No Iterations 1
DILUPBiCGStab:  Solving for e, Initial residual = 0.00281116, Final residual = 4.90934e-05, No Iterations 1
DICPCG:  Solving for p_rgh, Initial residual = 0.109792, Final residual = 0.000820711, No Iterations 103
time step continuity errors : sum local = 1.37354, global = 0.010344, cumulative = -8.38594
DILUPBiCGStab:  Solving for epsilon, Initial residual = 0, Final residual = 0, No Iterations 0
DILUPBiCGStab:  Solving for k, Initial residual = 0.0033011, Final residual = 4.94733e-05, No Iterations 1
ExecutionTime = 0.54 s  ClockTime = 1 s

Time = 70

DILUPBiCGStab:  Solving for Ux, Initial residual = 0.0136272, Final residual = 0.000546743, No Iterations 1
DILUPBiCGStab:  Solving for Uy, Initial residual = 0.0153078, Final residual = 0.00034709, No Iterations 1
DILUPBiCGStab:  Solving for Uz, Initial residual = 0.005563, Final residual = 0.000133309, No Iterations 1
DILUPBiCGStab:  Solving for e, Initial residual = 0.00279054, Final residual = 4.7343e-05, No Iterations 1
DICPCG:  Solving for p_rgh, Initial residual = 0.116336, Final residual = 0.000955488, No Iterations 102
time step continuity errors : sum local = 1.6598, global = 0.00661197, cumulative = -8.37933
DILUPBiCGStab:  Solving for epsilon, Initial residual = 0, Final residual = 0, No Iterations 0
DILUPBiCGStab:  Solving for k, Initial residual = 0.00327483, Final residual = 5.02663e-05, No Iterations 1
ExecutionTime = 0.55 s  ClockTime = 1 s

Time = 71

DILUPBiCGStab:  Solving for Ux, Initial residual = 0.011179, Final residual = 0.00048693, No Iterations 1
DILUPBiCGStab:  Solving for Uy, Initial residual = 0.0150958, Final residual = 0.000350665, No Iterations 1
DILUPBiCGStab:  Solving for Uz, Initial residual = 0.00541232, Final residual = 0.000123376, No Iterations 1
DILUPBiCGStab:  Solving for e, Initial residual = 0.00275991, Final residual = 4.72806e-05, No Iterations 1
DICPCG:  Solving for p_rgh, Initial residual = 0.1171, Final residual = 0.000809981, No Iterations 101
time step continuity errors : sum local = 1.37076, global = -0.00503695, cumulative = -8.38437
DILUPBiCGStab:  Solving for epsilon, Initial residual = 0, Final residual = 0, No Iterations 0
DILUPBiCGStab:  Solving for k, Initial residual = 0.00315023, Final residual = 4.92478e-05, No Iterations 1
ExecutionTime = 0.55 s  ClockTime = 1 s

Time = 72

DILUPBiCGStab:  Solving for Ux, Initial residual = 0.0085332, Final residual = 0.000329464, No Iterations 1
DILUPBiCGStab:  Solving for Uy, Initial residual = 0.0136664, Final residual = 0.000334096, No Iterations 1
DILUPBiCGStab:  Solving for Uz, Initial residual = 0.00514737, Final residual = 0.000115274, No Iterations 1
DILUPBiCGStab:  Solving for e, Initial residual = 0.00272336, Final residual = 4.77155e-05, No Iterations 1
DICPCG:  Solving for p_rgh, Initial residual = 0.104536, Final residual = 0.000681314, No Iterations 102
time step continuity errors : sum local = 1.0968, global = 0.00360312, cumulative = -8.38076
DILUPBiCGStab:  Solving for epsilon, Initial residual = 0, Final residual = 0, No Iterations 0
DILUPBiCGStab:  Solving for k, Initial residual = 0.00305499, Final residual = 4.96102e-05, No Iterations 1
ExecutionTime = 0.56 s  ClockTime = 1 s

Time = 73

DILUPBiCGStab:  Solving for Ux, Initial residual = 0.00871108, Final residual = 0.000240577, No Iterations 1
DILUPBiCGStab:  Solving for Uy, Initial residual = 0.0126589, Final residual = 0.000328706, No Iterations 1
DILUPBiCGStab:  Solving for Uz, Initial residual = 0.0049393, Final residual = 0.000114222, No Iterations 1
DILUPBiCGStab:  Solving for e, Initial residual = 0.00272804, Final residual = 4.93953e-05, No Iterations 1
DICPCG:  Solving for p_rgh, Initial residual = 0.093146, Final residual = 0.000850807, No Iterations 104
time step continuity errors : sum local = 1.38155, global = -0.0014184, cumulative = -8.38218
DILUPBiCGStab:  Solving for epsilon, Initial residual = 0, Final residual = 0, No Iterations 0
DILUPBiCGStab:  Solving for k, Initial residual = 0.00303072, Final residual = 5.03878e-05, No Iterations 1
ExecutionTime = 0.56 s  ClockTime = 1 s

Time = 74

DILUPBiCGStab:  Solving for Ux, Initial residual = 0.00900385, Final residual = 0.000267595, No Iterations 1
DILUPBiCGStab:  Solving for Uy, Initial residual = 0.0124494, Final residual = 0.000339345, No Iterations 1
DILUPBiCGStab:  Solving for Uz, Initial residual = 0.00493974, Final residual = 0.000118713, No Iterations 1
DILUPBiCGStab:  Solving for e, Initial residual = 0.00273873, Final residual = 4.90635e-05, No Iterations 1
DICPCG:  Solving for p_rgh, Initial residual = 0.0896593, Final residual = 0.000838512, No Iterations 101
time step continuity errors : sum local = 1.38336, global = 0.00166505, cumulative = -8.38052
DILUPBiCGStab:  Solving for epsilon, Initial residual = 0, Final residual = 0, No Iterations 0
DILUPBiCGStab:  Solving for k, Initial residual = 0.00298818, Final residual = 4.69731e-05, No Iterations 1
ExecutionTime = 0.57 s  ClockTime = 1 s

Time = 75

DILUPBiCGStab:  Solving for Ux, Initial residual = 0.010315, Final residual = 0.000294978, No Iterations 1
DILUPBiCGStab:  Solving for Uy, Initial residual = 0.0120227, Final residual = 0.00034446, No Iterations 1
DILUPBiCGStab:  Solving for Uz, Initial residual = 0.00486416, Final residual = 0.00011314, No Iterations 1
DILUPBiCGStab:  Solving for e, Initial residual = 0.00270111, Final residual = 4.91212e-05, No Iterations 1
DICPCG:  Solving for p_rgh, Initial residual = 0.0829024, Final residual = 0.000695916, No Iterations 103
time step continuity errors : sum local = 1.18317, global = 0.0043934, cumulative = -8.37612
DILUPBiCGStab:  Solving for epsilon, Initial residual = 0, Final residual = 0, No Iterations 0
DILUPBiCGStab:  Solving for k, Initial residual = 0.00304864, Final residual = 4.88634e-05, No Iterations 1
ExecutionTime = 0.58 s  ClockTime = 1 s

Time = 76

DILUPBiCGStab:  Solving for Ux, Initial residual = 0.00902374, Final residual = 0.000278269, No Iterations 1
DILUPBiCGStab:  Solving for Uy, Initial residual = 0.011384, Final residual = 0.000333979, No Iterations 1
DILUPBiCGStab:  Solving for Uz, Initial residual = 0.0047286, Final residual = 0.000104294, No Iterations 1
DILUPBiCGStab:  Solving for e, Initial residual = 0.00267799, Final residual = 4.97793e-05, No Iterations 1
DICPCG:  Solving for p_rgh, Initial residual = 0.0748778, Final residual = 0.000627715, No Iterations 102
time step continuity errors : sum local = 1.04975, global = -0.00115288, cumulative = -8.37728
DILUPBiCGStab:  Solving for epsilon, Initial residual = 0, Final residual = 0, No Iterations 0
DILUPBiCGStab:  Solving for k, Initial residual = 0.0028946, Final residual = 4.56723e-05, No Iterations 1
ExecutionTime = 0.58 s  ClockTime = 1 s

Time = 77

DILUPBiCGStab:  Solving for Ux, Initial residual = 0.00932095, Final residual = 0.000319833, No Iterations 1
DILUPBiCGStab:  Solving for Uy, Initial residual = 0.0108523, Final residual = 0.000314756, No Iterations 1
DILUPBiCGStab:  Solving for Uz, Initial residual = 0.00460195, Final residual = 0.00010101, No Iterations 1
DILUPBiCGStab:  Solving for e, Initial residual = 0.0026509, Final residual = 5.08145e-05, No Iterations 1
DICPCG:  Solving for p_rgh, Initial residual = 0.0703219, Final residual = 0.000687923, No Iterations 101
time step continuity errors : sum local = 1.14963, global = 0.00858436, cumulative = -8.36869
DILUPBiCGStab:  Solving for epsilon, Initial residual = 0, Final residual = 0, No Iterations 0
DILUPBiCGStab:  Solving for k, Initial residual = 0.00292351, Final residual = 4.62773e-05, No Iterations 1
ExecutionTime = 0.59 s  ClockTime = 1 s

Time = 78

DILUPBiCGStab:  Solving for Ux, Initial residual = 0.00816952, Final residual = 0.000279046, No Iterations 1
DILUPBiCGStab:  Solving for Uy, Initial residual = 0.0106758, Final residual = 0.00030324, No Iterations 1
DILUPBiCGStab:  Solving for Uz, Initial residual = 0.00449066, Final residual = 9.93556e-05, No Iterations 1
DILUPBiCGStab:  Solving for e, Initial residual = 0.0026051, Final residual = 5.10778e-05, No Iterations 1
DICPCG:  Solving for p_rgh, Initial residual = 0.0653586, Final residual = 0.000551408, No Iterations 103
time step continuity errors : sum local = 0.912839, global = -0.00330992, cumulative = -8.372
DILUPBiCGStab:  Solving for epsilon, Initial residual = 0, Final residual = 0, No Iterations 0
DILUPBiCGStab:  Solving for k, Initial residual = 0.00296355, Final residual = 4.5914e-05, No Iterations 1
ExecutionTime = 0.6 s  ClockTime = 1 s

Time = 79

DILUPBiCGStab:  Solving for Ux, Initial residual = 0.00725523, Final residual = 0.000239795, No Iterations 1
DILUPBiCGStab:  Solving for Uy, Initial residual = 0.0108106, Final residual = 0.000300038, No Iterations 1
DILUPBiCGStab:  Solving for Uz, Initial residual = 0.00440395, Final residual = 0.000100565, No Iterations 1
DILUPBiCGStab:  Solving for e, Initial residual = 0.00255418, Final residual = 5.18773e-05, No Iterations 1
DICPCG:  Solving for p_rgh, Initial residual = 0.0643275, Final residual = 0.000506915, No Iterations 103
time step continuity errors : sum local = 0.828836, global = 0.00134996, cumulative = -8.37065
DILUPBiCGStab:  Solving for epsilon, Initial residual = 0, Final residual = 0, No Iterations 0
DILUPBiCGStab:  Solving for k, Initial residual = 0.00301273, Final residual = 4.52821e-05, No Iterations 1
ExecutionTime = 0.6 s  ClockTime = 1 s

Time = 80

DILUPBiCGStab:  Solving for Ux, Initial residual = 0.00634363, Final residual = 0.000182164, No Iterations 1
DILUPBiCGStab:  Solving for Uy, Initial residual = 0.0108854, Final residual = 0.000294805, No Iterations 1
DILUPBiCGStab:  Solving for Uz, Initial residual = 0.00433565, Final residual = 0.000101768, No Iterations 1
DILUPBiCGStab:  Solving for e, Initial residual = 0.00255459, Final residual = 5.15591e-05, No Iterations 1
DICPCG:  Solving for p_rgh, Initial residual = 0.0644092, Final residual = 0.000456419, No Iterations 103
time step continuity errors : sum local = 0.735275, global = -0.00320178, cumulative = -8.37385
DILUPBiCGStab:  Solving for epsilon, Initial residual = 0, Final residual = 0, No Iterations 0
DILUPBiCGStab:  Solving for k, Initial residual = 0.00306662, Final residual = 4.59553e-05, No Iterations 1
ExecutionTime = 0.61 s  ClockTime = 1 s

Time = 81

DILUPBiCGStab:  Solving for Ux, Initial residual = 0.0065166, Final residual = 0.000185074, No Iterations 1
DILUPBiCGStab:  Solving for Uy, Initial residual = 0.0106364, Final residual = 0.000284371, No Iterations 1
DILUPBiCGStab:  Solving for Uz, Initial residual = 0.00431287, Final residual = 0.000104303, No Iterations 1
DILUPBiCGStab:  Solving for e, Initial residual = 0.00258239, Final residual = 5.13504e-05, No Iterations 1
DICPCG:  Solving for p_rgh, Initial residual = 0.0664369, Final residual = 0.000573265, No Iterations 102
time step continuity errors : sum local = 0.896408, global = -0.00478937, cumulative = -8.37864
DILUPBiCGStab:  Solving for epsilon, Initial residual = 0, Final residual = 0, No Iterations 0
DILUPBiCGStab:  Solving for k, Initial residual = 0.00307777, Final residual = 4.58611e-05, No Iterations 1
ExecutionTime = 0.61 s  ClockTime = 1 s

Time = 82

DILUPBiCGStab:  Solving for Ux, Initial residual = 0.00705774, Final residual = 0.000215798, No Iterations 1
DILUPBiCGStab:  Solving for Uy, Initial residual = 0.00987309, Final residual = 0.000257331, No Iterations 1
DILUPBiCGStab:  Solving for Uz, Initial residual = 0.00425986, Final residual = 9.3407e-05, No Iterations 1
DILUPBiCGStab:  Solving for e, Initial residual = 0.00258815, Final residual = 5.09025e-05, No Iterations 1
DICPCG:  Solving for p_rgh, Initial residual = 0.0691303, Final residual = 0.000685543, No Iterations 102
time step continuity errors : sum local = 1.04006, global = 0.000753137, cumulative = -8.37789
DILUPBiCGStab:  Solving for epsilon, Initial residual = 0, Final residual = 0, No Iterations 0
DILUPBiCGStab:  Solving for k, Initial residual = 0.00303213, Final residual = 4.45093e-05, No Iterations 1
ExecutionTime = 0.62 s  ClockTime = 1 s

Time = 83

DILUPBiCGStab:  Solving for Ux, Initial residual = 0.00684709, Final residual = 0.00021163, No Iterations 1
DILUPBiCGStab:  Solving for Uy, Initial residual = 0.00961612, Final residual = 0.000244817, No Iterations 1
DILUPBiCGStab:  Solving for Uz, Initial residual = 0.0041402, Final residual = 9.14333e-05, No Iterations 1
DILUPBiCGStab:  Solving for e, Initial residual = 0.00258563, Final residual = 5.11237e-05, No Iterations 1
DICPCG:  Solving for p_rgh, Initial residual = 0.0692755, Final residual = 0.000545861, No Iterations 102
time step continuity errors : sum local = 0.817522, global = 4.24527e-06, cumulative = -8.37789
DILUPBiCGStab:  Solving for epsilon, Initial residual = 0, Final residual = 0, No Iterations 0
DILUPBiCGStab:  Solving for k, Initial residual = 0.00298705, Final residual = 4.29536e-05, No Iterations 1
ExecutionTime = 0.63 s  ClockTime = 1 s

Time = 84

DILUPBiCGStab:  Solving for Ux, Initial residual = 0.00606697, Final residual = 0.000164767, No Iterations 1
DILUPBiCGStab:  Solving for Uy, Initial residual = 0.00967969, Final residual = 0.000245934, No Iterations 1
DILUPBiCGStab:  Solving for Uz, Initial residual = 0.00403148, Final residual = 8.99227e-05, No Iterations 1
DILUPBiCGStab:  Solving for e, Initial residual = 0.0025758, Final residual = 5.12735e-05, No Iterations 1
DICPCG:  Solving for p_rgh, Initial residual = 0.0647938, Final residual = 0.000351405, No Iterations 103
time step continuity errors : sum local = 0.531133, global = 0.00212139, cumulative = -8.37576
DILUPBiCGStab:  Solving for epsilon, Initial residual = 0, Final residual = 0, No Iterations 0
DILUPBiCGStab:  Solving for k, Initial residual = 0.00302417, Final residual = 4.30698e-05, No Iterations 1
ExecutionTime = 0.63 s  ClockTime = 1 s

Time = 85

DILUPBiCGStab:  Solving for Ux, Initial residual = 0.00653159, Final residual = 0.000151537, No Iterations 1
DILUPBiCGStab:  Solving for Uy, Initial residual = 0.0098986, Final residual = 0.000252258, No Iterations 1
DILUPBiCGStab:  Solving for Uz, Initial residual = 0.00397657, Final residual = 9.07968e-05, No Iterations 1
DILUPBiCGStab:  Solving for e, Initial residual = 0.00258066, Final residual = 5.18441e-05, No Iterations 1
DICPCG:  Solving for p_rgh, Initial residual = 0.0608914, Final residual = 0.000457044, No Iterations 102
time step continuity errors : sum local = 0.704985, global = 0.00101084, cumulative = -8.37475
DILUPBiCGStab:  Solving for epsilon, Initial residual = 0, Final residual = 0, No Iterations 0
DILUPBiCGStab:  Solving for k, Initial residual = 0.00307163, Final residual = 4.24862e-05, No Iterations 1
ExecutionTime = 0.64 s  ClockTime = 1 s

Time = 86

DILUPBiCGStab:  Solving for Ux, Initial residual = 0.00716824, Final residual = 0.000152614, No Iterations 1
DILUPBiCGStab:  Solving for Uy, Initial residual = 0.0102184, Final residual = 0.000257211, No Iterations 1
DILUPBiCGStab:  Solving for Uz, Initial residual = 0.00392081, Final residual = 9.02817e-05, No Iterations 1
DILUPBiCGStab:  Solving for e, Initial residual = 0.00257016, Final residual = 5.03388e-05, No Iterations 1
DICPCG:  Solving for p_rgh, Initial residual = 0.0589014, Final residual = 0.000585868, No Iterations 76
time step continuity errors : sum local = 0.917147, global = 0.0430363, cumulative = -8.33172
DILUPBiCGStab:  Solving for epsilon, Initial residual = 0, Final residual = 0, No Iterations 0
DILUPBiCGStab:  Solving for k, Initial residual = 0.00313919, Final residual = 4.30134e-05, No Iterations 1
ExecutionTime = 0.65 s  ClockTime = 1 s

Time = 87

DILUPBiCGStab:  Solving for Ux, Initial residual = 0.00669883, Final residual = 0.000145351, No Iterations 1
DILUPBiCGStab:  Solving for Uy, Initial residual = 0.0100861, Final residual = 0.000250633, No Iterations 1
DILUPBiCGStab:  Solving for Uz, Initial residual = 0.00385656, Final residual = 8.65775e-05, No Iterations 1
DILUPBiCGStab:  Solving for e, Initial residual = 0.00259557, Final residual = 4.97112e-05, No Iterations 1
DICPCG:  Solving for p_rgh, Initial residual = 0.0572636, Final residual = 0.000423197, No Iterations 102
time step continuity errors : sum local = 0.658783, global = -0.00226308, cumulative = -8.33398
DILUPBiCGStab:  Solving for epsilon, Initial residual = 0, Final residual = 0, No Iterations 0
DILUPBiCGStab:  Solving for k, Initial residual = 0.00320053, Final residual = 4.37888e-05, No Iterations 1
ExecutionTime = 0.65 s  ClockTime = 1 s

Time = 88

DILUPBiCGStab:  Solving for Ux, Initial residual = 0.0065497, Final residual = 0.000145333, No Iterations 1
DILUPBiCGStab:  Solving for Uy, Initial residual = 0.00985863, Final residual = 0.000236524, No Iterations 1
DILUPBiCGStab:  Solving for Uz, Initial residual = 0.00381892, Final residual = 8.23902e-05, No Iterations 1
DILUPBiCGStab:  Solving for e, Initial residual = 0.00261504, Final residual = 4.96144e-05, No Iterations 1
DICPCG:  Solving for p_rgh, Initial residual = 0.0553215, Final residual = 0.000549148, No Iterations 73
time step continuity errors : sum local = 0.846581, global = 0.0639983, cumulative = -8.26998
DILUPBiCGStab:  Solving for epsilon, Initial residual = 0, Final residual = 0, No Iterations 0
[...]
DICPCG:  Solving for p_rgh, Initial residual = 0.121907, Final residual = 0.00113629, No Iterations 50
time step continuity errors : sum local = 1.32736, global = 0.137628, cumulative = -5.81612
DILUPBiCGStab:  Solving for epsilon, Initial residual = 0, Final residual = 0, No Iterations 0
DILUPBiCGStab:  Solving for k, Initial residual = 0.00142748, Final residual = 8.66816e-06, No Iterations 1
ExecutionTime = 6.52 s  ClockTime = 7 s

Time = 979

DILUPBiCGStab:  Solving for Ux, Initial residual = 0.00512018, Final residual = 4.99791e-05, No Iterations 1
DILUPBiCGStab:  Solving for Uy, Initial residual = 0.0388396, Final residual = 0.000129139, No Iterations 1
DILUPBiCGStab:  Solving for Uz, Initial residual = 0.00143498, Final residual = 6.88417e-06, No Iterations 1
DILUPBiCGStab:  Solving for e, Initial residual = 0.00153528, Final residual = 8.63607e-06, No Iterations 1
DICPCG:  Solving for p_rgh, Initial residual = 0.114261, Final residual = 0.00103017, No Iterations 111
time step continuity errors : sum local = 1.30664, global = 0.00266527, cumulative = -5.81345
DILUPBiCGStab:  Solving for epsilon, Initial residual = 0, Final residual = 0, No Iterations 0
DILUPBiCGStab:  Solving for k, Initial residual = 0.00135124, Final residual = 5.86047e-06, No Iterations 1
ExecutionTime = 6.53 s  ClockTime = 7 s

Time = 980

DILUPBiCGStab:  Solving for Ux, Initial residual = 0.00340555, Final residual = 2.86496e-05, No Iterations 1
DILUPBiCGStab:  Solving for Uy, Initial residual = 0.0411309, Final residual = 0.000124025, No Iterations 1
DILUPBiCGStab:  Solving for Uz, Initial residual = 0.00139096, Final residual = 6.33048e-06, No Iterations 1
DILUPBiCGStab:  Solving for e, Initial residual = 0.00151347, Final residual = 8.5831e-06, No Iterations 1
DICPCG:  Solving for p_rgh, Initial residual = 0.117413, Final residual = 0.000878424, No Iterations 110
time step continuity errors : sum local = 1.00539, global = -0.000202579, cumulative = -5.81366
DILUPBiCGStab:  Solving for epsilon, Initial residual = 0, Final residual = 0, No Iterations 0
DILUPBiCGStab:  Solving for k, Initial residual = 0.0015132, Final residual = 4.94761e-06, No Iterations 1
ExecutionTime = 6.54 s  ClockTime = 7 s

Time = 981

DILUPBiCGStab:  Solving for Ux, Initial residual = 0.00262093, Final residual = 1.71927e-05, No Iterations 1
DILUPBiCGStab:  Solving for Uy, Initial residual = 0.0363611, Final residual = 9.77411e-05, No Iterations 1
DILUPBiCGStab:  Solving for Uz, Initial residual = 0.00135293, Final residual = 5.87824e-06, No Iterations 1
DILUPBiCGStab:  Solving for e, Initial residual = 0.00150719, Final residual = 8.6155e-06, No Iterations 1
DICPCG:  Solving for p_rgh, Initial residual = 0.123452, Final residual = 0.00116854, No Iterations 109
time step continuity errors : sum local = 1.20267, global = -0.005878, cumulative = -5.81954
DILUPBiCGStab:  Solving for epsilon, Initial residual = 0, Final residual = 0, No Iterations 0
DILUPBiCGStab:  Solving for k, Initial residual = 0.00149914, Final residual = 5.10867e-06, No Iterations 1
ExecutionTime = 6.54 s  ClockTime = 7 s

Time = 982

DILUPBiCGStab:  Solving for Ux, Initial residual = 0.00249954, Final residual = 1.74473e-05, No Iterations 1
DILUPBiCGStab:  Solving for Uy, Initial residual = 0.0291317, Final residual = 7.21183e-05, No Iterations 1
DILUPBiCGStab:  Solving for Uz, Initial residual = 0.00130396, Final residual = 5.77956e-06, No Iterations 1
DILUPBiCGStab:  Solving for e, Initial residual = 0.0014992, Final residual = 8.67698e-06, No Iterations 1
DICPCG:  Solving for p_rgh, Initial residual = 0.10518, Final residual = 0.00100767, No Iterations 112
time step continuity errors : sum local = 1.05572, global = 0.00126422, cumulative = -5.81827
DILUPBiCGStab:  Solving for epsilon, Initial residual = 0, Final residual = 0, No Iterations 0
DILUPBiCGStab:  Solving for k, Initial residual = 0.00131896, Final residual = 4.93652e-06, No Iterations 1
ExecutionTime = 6.55 s  ClockTime = 7 s

Time = 983

DILUPBiCGStab:  Solving for Ux, Initial residual = 0.00364919, Final residual = 3.25676e-05, No Iterations 1
DILUPBiCGStab:  Solving for Uy, Initial residual = 0.0233024, Final residual = 6.3758e-05, No Iterations 1
DILUPBiCGStab:  Solving for Uz, Initial residual = 0.00125731, Final residual = 5.40969e-06, No Iterations 1
DILUPBiCGStab:  Solving for e, Initial residual = 0.00149278, Final residual = 8.64317e-06, No Iterations 1
DICPCG:  Solving for p_rgh, Initial residual = 0.104778, Final residual = 0.000812401, No Iterations 113
time step continuity errors : sum local = 0.918838, global = 0.0032946, cumulative = -5.81498
DILUPBiCGStab:  Solving for epsilon, Initial residual = 0, Final residual = 0, No Iterations 0
DILUPBiCGStab:  Solving for k, Initial residual = 0.00116637, Final residual = 4.66916e-06, No Iterations 1
ExecutionTime = 6.56 s  ClockTime = 7 s

Time = 984

DILUPBiCGStab:  Solving for Ux, Initial residual = 0.00323206, Final residual = 3.21239e-05, No Iterations 1
DILUPBiCGStab:  Solving for Uy, Initial residual = 0.0201723, Final residual = 8.1061e-05, No Iterations 1
DILUPBiCGStab:  Solving for Uz, Initial residual = 0.00127897, Final residual = 5.26298e-06, No Iterations 1
DILUPBiCGStab:  Solving for e, Initial residual = 0.00150122, Final residual = 8.6828e-06, No Iterations 1
DICPCG:  Solving for p_rgh, Initial residual = 0.105771, Final residual = 0.000891638, No Iterations 112
time step continuity errors : sum local = 1.01046, global = -2.52261e-05, cumulative = -5.815
DILUPBiCGStab:  Solving for epsilon, Initial residual = 0, Final residual = 0, No Iterations 0
DILUPBiCGStab:  Solving for k, Initial residual = 0.0011277, Final residual = 4.94468e-06, No Iterations 1
ExecutionTime = 6.56 s  ClockTime = 7 s

Time = 985

DILUPBiCGStab:  Solving for Ux, Initial residual = 0.00268801, Final residual = 2.47272e-05, No Iterations 1
DILUPBiCGStab:  Solving for Uy, Initial residual = 0.023214, Final residual = 8.45057e-05, No Iterations 1
DILUPBiCGStab:  Solving for Uz, Initial residual = 0.00133263, Final residual = 5.32187e-06, No Iterations 1
DILUPBiCGStab:  Solving for e, Initial residual = 0.0015088, Final residual = 8.73521e-06, No Iterations 1
DICPCG:  Solving for p_rgh, Initial residual = 0.107558, Final residual = 0.00106466, No Iterations 110
time step continuity errors : sum local = 1.17277, global = 0.000943044, cumulative = -5.81406
DILUPBiCGStab:  Solving for epsilon, Initial residual = 0, Final residual = 0, No Iterations 0
DILUPBiCGStab:  Solving for k, Initial residual = 0.00138813, Final residual = 7.45163e-06, No Iterations 1
ExecutionTime = 6.57 s  ClockTime = 7 s

Time = 986

DILUPBiCGStab:  Solving for Ux, Initial residual = 0.00450322, Final residual = 4.15273e-05, No Iterations 1
DILUPBiCGStab:  Solving for Uy, Initial residual = 0.0295572, Final residual = 8.96748e-05, No Iterations 1
DILUPBiCGStab:  Solving for Uz, Initial residual = 0.001281, Final residual = 5.28361e-06, No Iterations 1
DILUPBiCGStab:  Solving for e, Initial residual = 0.00146883, Final residual = 8.60356e-06, No Iterations 1
DICPCG:  Solving for p_rgh, Initial residual = 0.109675, Final residual = 0.00093388, No Iterations 112
time step continuity errors : sum local = 1.12404, global = -0.00624395, cumulative = -5.8203
DILUPBiCGStab:  Solving for epsilon, Initial residual = 0, Final residual = 0, No Iterations 0
DILUPBiCGStab:  Solving for k, Initial residual = 0.00118327, Final residual = 6.94432e-06, No Iterations 1
ExecutionTime = 6.58 s  ClockTime = 7 s

Time = 987

DILUPBiCGStab:  Solving for Ux, Initial residual = 0.00518226, Final residual = 4.71321e-05, No Iterations 1
DILUPBiCGStab:  Solving for Uy, Initial residual = 0.034787, Final residual = 0.000104784, No Iterations 1
DILUPBiCGStab:  Solving for Uz, Initial residual = 0.00122401, Final residual = 4.86342e-06, No Iterations 1
DILUPBiCGStab:  Solving for e, Initial residual = 0.00142209, Final residual = 8.48188e-06, No Iterations 1
DICPCG:  Solving for p_rgh, Initial residual = 0.108192, Final residual = 0.00105963, No Iterations 112
time step continuity errors : sum local = 1.3327, global = 0.00721585, cumulative = -5.81309
DILUPBiCGStab:  Solving for epsilon, Initial residual = 0, Final residual = 0, No Iterations 0
DILUPBiCGStab:  Solving for k, Initial residual = 0.00137447, Final residual = 4.70977e-06, No Iterations 1
ExecutionTime = 6.58 s  ClockTime = 7 s

Time = 988

DILUPBiCGStab:  Solving for Ux, Initial residual = 0.002858, Final residual = 1.40472e-05, No Iterations 1
DILUPBiCGStab:  Solving for Uy, Initial residual = 0.0340522, Final residual = 0.000109502, No Iterations 1
DILUPBiCGStab:  Solving for Uz, Initial residual = 0.00130912, Final residual = 5.31821e-06, No Iterations 1
DILUPBiCGStab:  Solving for e, Initial residual = 0.00152161, Final residual = 9.08777e-06, No Iterations 1
DICPCG:  Solving for p_rgh, Initial residual = 0.111109, Final residual = 0.00080643, No Iterations 111
time step continuity errors : sum local = 0.864617, global = 0.00264547, cumulative = -5.81044
DILUPBiCGStab:  Solving for epsilon, Initial residual = 0, Final residual = 0, No Iterations 0
DILUPBiCGStab:  Solving for k, Initial residual = 0.00111949, Final residual = 5.95941e-06, No Iterations 1
ExecutionTime = 6.59 s  ClockTime = 7 s

Time = 989

DILUPBiCGStab:  Solving for Ux, Initial residual = 0.00262202, Final residual = 1.65784e-05, No Iterations 1
DILUPBiCGStab:  Solving for Uy, Initial residual = 0.0257807, Final residual = 8.21052e-05, No Iterations 1
DILUPBiCGStab:  Solving for Uz, Initial residual = 0.00129502, Final residual = 5.54129e-06, No Iterations 1
DILUPBiCGStab:  Solving for e, Initial residual = 0.00149446, Final residual = 9.06768e-06, No Iterations 1
DICPCG:  Solving for p_rgh, Initial residual = 0.0972724, Final residual = 0.000920592, No Iterations 109
time step continuity errors : sum local = 0.948511, global = 0.000459374, cumulative = -5.80998
DILUPBiCGStab:  Solving for epsilon, Initial residual = 0, Final residual = 0, No Iterations 0
DILUPBiCGStab:  Solving for k, Initial residual = 0.00114124, Final residual = 6.42635e-06, No Iterations 1
ExecutionTime = 6.6 s  ClockTime = 7 s

Time = 990

DILUPBiCGStab:  Solving for Ux, Initial residual = 0.00290604, Final residual = 2.82378e-05, No Iterations 1
DILUPBiCGStab:  Solving for Uy, Initial residual = 0.0193601, Final residual = 7.68983e-05, No Iterations 1
DILUPBiCGStab:  Solving for Uz, Initial residual = 0.00136119, Final residual = 5.8279e-06, No Iterations 1
DILUPBiCGStab:  Solving for e, Initial residual = 0.0015085, Final residual = 9.29203e-06, No Iterations 1
DICPCG:  Solving for p_rgh, Initial residual = 0.105417, Final residual = 0.000997187, No Iterations 112
time step continuity errors : sum local = 1.05416, global = -0.00684242, cumulative = -5.81682
DILUPBiCGStab:  Solving for epsilon, Initial residual = 0, Final residual = 0, No Iterations 0
DILUPBiCGStab:  Solving for k, Initial residual = 0.00124971, Final residual = 8.11396e-06, No Iterations 1
ExecutionTime = 6.6 s  ClockTime = 7 s

Time = 991

DILUPBiCGStab:  Solving for Ux, Initial residual = 0.00249377, Final residual = 2.45038e-05, No Iterations 1
DILUPBiCGStab:  Solving for Uy, Initial residual = 0.027704, Final residual = 0.000111808, No Iterations 1
DILUPBiCGStab:  Solving for Uz, Initial residual = 0.00134787, Final residual = 5.90626e-06, No Iterations 1
DILUPBiCGStab:  Solving for e, Initial residual = 0.0015056, Final residual = 8.94747e-06, No Iterations 1
DICPCG:  Solving for p_rgh, Initial residual = 0.106086, Final residual = 0.000839622, No Iterations 112
time step continuity errors : sum local = 0.887366, global = -0.00915512, cumulative = -5.82598
DILUPBiCGStab:  Solving for epsilon, Initial residual = 0, Final residual = 0, No Iterations 0
DILUPBiCGStab:  Solving for k, Initial residual = 0.00134122, Final residual = 1.04919e-05, No Iterations 1
ExecutionTime = 6.61 s  ClockTime = 7 s

Time = 992

DILUPBiCGStab:  Solving for Ux, Initial residual = 0.00271309, Final residual = 2.11975e-05, No Iterations 1
DILUPBiCGStab:  Solving for Uy, Initial residual = 0.0321759, Final residual = 0.000113826, No Iterations 1
DILUPBiCGStab:  Solving for Uz, Initial residual = 0.00131167, Final residual = 5.80924e-06, No Iterations 1
DILUPBiCGStab:  Solving for e, Initial residual = 0.00147254, Final residual = 8.08018e-06, No Iterations 1
DICPCG:  Solving for p_rgh, Initial residual = 0.105162, Final residual = 0.000932535, No Iterations 110
time step continuity errors : sum local = 0.98623, global = 0.000859539, cumulative = -5.82512
DILUPBiCGStab:  Solving for epsilon, Initial residual = 0, Final residual = 0, No Iterations 0
DILUPBiCGStab:  Solving for k, Initial residual = 0.00146441, Final residual = 1.18869e-05, No Iterations 1
ExecutionTime = 6.62 s  ClockTime = 7 s

Time = 993

DILUPBiCGStab:  Solving for Ux, Initial residual = 0.00452024, Final residual = 4.46605e-05, No Iterations 1
DILUPBiCGStab:  Solving for Uy, Initial residual = 0.0260863, Final residual = 9.84914e-05, No Iterations 1
DILUPBiCGStab:  Solving for Uz, Initial residual = 0.00123252, Final residual = 5.39313e-06, No Iterations 1
DILUPBiCGStab:  Solving for e, Initial residual = 0.00143523, Final residual = 7.76342e-06, No Iterations 1
DICPCG:  Solving for p_rgh, Initial residual = 0.104102, Final residual = 0.00101731, No Iterations 111
time step continuity errors : sum local = 1.15855, global = 0.00334472, cumulative = -5.82178
DILUPBiCGStab:  Solving for epsilon, Initial residual = 0, Final residual = 0, No Iterations 0
DILUPBiCGStab:  Solving for k, Initial residual = 0.00187187, Final residual = 1.46648e-05, No Iterations 1
ExecutionTime = 6.62 s  ClockTime = 7 s

Time = 994

DILUPBiCGStab:  Solving for Ux, Initial residual = 0.00710768, Final residual = 8.46201e-05, No Iterations 1
DILUPBiCGStab:  Solving for Uy, Initial residual = 0.0207278, Final residual = 0.000109194, No Iterations 1
DILUPBiCGStab:  Solving for Uz, Initial residual = 0.00123081, Final residual = 5.71089e-06, No Iterations 1
DILUPBiCGStab:  Solving for e, Initial residual = 0.00145599, Final residual = 8.53064e-06, No Iterations 1
DICPCG:  Solving for p_rgh, Initial residual = 0.109223, Final residual = 0.000872614, No Iterations 114
time step continuity errors : sum local = 1.11418, global = 0.000392619, cumulative = -5.82138
DILUPBiCGStab:  Solving for epsilon, Initial residual = 0, Final residual = 0, No Iterations 0
DILUPBiCGStab:  Solving for k, Initial residual = 0.00179524, Final residual = 1.32382e-05, No Iterations 1
ExecutionTime = 6.63 s  ClockTime = 7 s

Time = 995

DILUPBiCGStab:  Solving for Ux, Initial residual = 0.00744945, Final residual = 8.82254e-05, No Iterations 1
DILUPBiCGStab:  Solving for Uy, Initial residual = 0.0284231, Final residual = 0.00015883, No Iterations 1
DILUPBiCGStab:  Solving for Uz, Initial residual = 0.00118805, Final residual = 4.95023e-06, No Iterations 1
DILUPBiCGStab:  Solving for e, Initial residual = 0.00142509, Final residual = 8.28063e-06, No Iterations 1
DICPCG:  Solving for p_rgh, Initial residual = 0.10376, Final residual = 0.000819783, No Iterations 113
time step continuity errors : sum local = 1.11198, global = -0.00230527, cumulative = -5.82369
DILUPBiCGStab:  Solving for epsilon, Initial residual = 0, Final residual = 0, No Iterations 0
DILUPBiCGStab:  Solving for k, Initial residual = 0.00160463, Final residual = 1.06861e-05, No Iterations 1
ExecutionTime = 6.64 s  ClockTime = 7 s

Time = 996

DILUPBiCGStab:  Solving for Ux, Initial residual = 0.00559717, Final residual = 6.00236e-05, No Iterations 1
DILUPBiCGStab:  Solving for Uy, Initial residual = 0.0437178, Final residual = 0.000189144, No Iterations 1
DILUPBiCGStab:  Solving for Uz, Initial residual = 0.00116158, Final residual = 4.70989e-06, No Iterations 1
DILUPBiCGStab:  Solving for e, Initial residual = 0.00139783, Final residual = 7.98274e-06, No Iterations 1
DICPCG:  Solving for p_rgh, Initial residual = 0.106521, Final residual = 0.000899946, No Iterations 112
time step continuity errors : sum local = 1.20032, global = -0.00209272, cumulative = -5.82578
DILUPBiCGStab:  Solving for epsilon, Initial residual = 0, Final residual = 0, No Iterations 0
DILUPBiCGStab:  Solving for k, Initial residual = 0.00146989, Final residual = 6.60849e-06, No Iterations 1
ExecutionTime = 6.65 s  ClockTime = 7 s

Time = 997

DILUPBiCGStab:  Solving for Ux, Initial residual = 0.00358051, Final residual = 2.1523e-05, No Iterations 1
DILUPBiCGStab:  Solving for Uy, Initial residual = 0.0473854, Final residual = 0.000165044, No Iterations 1
DILUPBiCGStab:  Solving for Uz, Initial residual = 0.0011998, Final residual = 4.58913e-06, No Iterations 1
DILUPBiCGStab:  Solving for e, Initial residual = 0.00141449, Final residual = 7.63753e-06, No Iterations 1
DICPCG:  Solving for p_rgh, Initial residual = 0.116671, Final residual = 0.00115964, No Iterations 112
time step continuity errors : sum local = 1.32283, global = -0.00438224, cumulative = -5.83016
DILUPBiCGStab:  Solving for epsilon, Initial residual = 0, Final residual = 0, No Iterations 0
DILUPBiCGStab:  Solving for k, Initial residual = 0.00244968, Final residual = 1.49993e-05, No Iterations 1
ExecutionTime = 6.66 s  ClockTime = 7 s

Time = 998

DILUPBiCGStab:  Solving for Ux, Initial residual = 0.00713631, Final residual = 6.17767e-05, No Iterations 1
DILUPBiCGStab:  Solving for Uy, Initial residual = 0.0333882, Final residual = 9.3447e-05, No Iterations 1
DILUPBiCGStab:  Solving for Uz, Initial residual = 0.00145046, Final residual = 6.80637e-06, No Iterations 1
DILUPBiCGStab:  Solving for e, Initial residual = 0.00153561, Final residual = 9.36064e-06, No Iterations 1
DICPCG:  Solving for p_rgh, Initial residual = 0.155562, Final residual = 0.000935732, No Iterations 110
time step continuity errors : sum local = 1.12193, global = -0.000299225, cumulative = -5.83046
DILUPBiCGStab:  Solving for epsilon, Initial residual = 0, Final residual = 0, No Iterations 0
DILUPBiCGStab:  Solving for k, Initial residual = 0.00265574, Final residual = 2.34653e-05, No Iterations 1
ExecutionTime = 6.67 s  ClockTime = 7 s

Time = 999

DILUPBiCGStab:  Solving for Ux, Initial residual = 0.0154107, Final residual = 0.000154991, No Iterations 1
DILUPBiCGStab:  Solving for Uy, Initial residual = 0.0335914, Final residual = 0.000189388, No Iterations 1
DILUPBiCGStab:  Solving for Uz, Initial residual = 0.00175461, Final residual = 7.72784e-06, No Iterations 1
DILUPBiCGStab:  Solving for e, Initial residual = 0.00168058, Final residual = 9.29134e-06, No Iterations 1
DICPCG:  Solving for p_rgh, Initial residual = 0.140359, Final residual = 0.00132448, No Iterations 110
time step continuity errors : sum local = 2.10534, global = 0.0188426, cumulative = -5.81162
DILUPBiCGStab:  Solving for epsilon, Initial residual = 0, Final residual = 0, No Iterations 0
DILUPBiCGStab:  Solving for k, Initial residual = 0.00167767, Final residual = 1.3499e-05, No Iterations 1
ExecutionTime = 6.68 s  ClockTime = 7 s

Time = 1000

DILUPBiCGStab:  Solving for Ux, Initial residual = 0.0160976, Final residual = 0.000195624, No Iterations 1
DILUPBiCGStab:  Solving for Uy, Initial residual = 0.0709212, Final residual = 0.000424852, No Iterations 1
DILUPBiCGStab:  Solving for Uz, Initial residual = 0.0018224, Final residual = 1.0105e-05, No Iterations 1
DILUPBiCGStab:  Solving for e, Initial residual = 0.00170849, Final residual = 9.79745e-06, No Iterations 1
DICPCG:  Solving for p_rgh, Initial residual = 0.127743, Final residual = 0.00100781, No Iterations 111
time step continuity errors : sum local = 1.88772, global = -0.00943471, cumulative = -5.82105
DILUPBiCGStab:  Solving for epsilon, Initial residual = 0, Final residual = 0, No Iterations 0
DILUPBiCGStab:  Solving for k, Initial residual = 0.0026996, Final residual = 1.7419e-05, No Iterations 1
ExecutionTime = 6.7 s  ClockTime = 7 s

End

