/*---------------------------------------------------------------------------*\
  =========                 |
  \\      /  F ield         | OpenFOAM: The Open Source CFD Toolbox
   \\    /   O peration     | Website:  https://openfoam.org
    \\  /    A nd           | Version:  8
     \\/     M anipulation  |
\*---------------------------------------------------------------------------*/
Build  : 8-1c9b5879390b
Exec   : buoyantSimpleFoam
Date   : Jan 27 2025
Time   : 15:06:50
Host   : "658dd9edf29b"
PID    : 1034
I/O    : uncollated
Case   : /home/openfoam/run/straightPipe/Re20000/q-500
nProcs : 1
sigFpe : Enabling floating point exception trapping (FOAM_SIGFPE).
fileModificationChecking : Monitoring run-time modified files using timeStampMaster (fileModificationSkew 10)
allowSystemOperations : Allowing user-supplied system call operations

// * * * * * * * * * * * * * * * * * * * * * * * * * * * * * * * * * * * * * //
Create time

Create mesh for time = 0


SIMPLE: Convergence criteria found
        p_rgh: tolerance 0.01
        U: tolerance 0.0001
        e: tolerance 0.01
        "(k|epsilon|omega)": tolerance 0.001

Reading thermophysical properties

Selecting thermodynamics package 
{
    type            heRhoThermo;
    mixture         pureMixture;
    transport       const;
    thermo          eConst;
    equationOfState Boussinesq;
    specie          specie;
    energy          sensibleInternalEnergy;
}

Reading field U

Reading/calculating face flux field phi

Creating turbulence model

Selecting turbulence model type RAS
Selecting RAS turbulence model kEpsilon
RAS
{
    RASModel        kEpsilon;
    turbulence      on;
    printCoeffs     on;
    Cmu             0.09;
    C1              1.44;
    C2              1.92;
    C3              0;
    sigmak          1;
    sigmaEps        1.3;
}

Creating thermophysical transport model

Selecting thermophysical transport type RAS
Selecting default RAS thermophysical transport model eddyDiffusivity

Reading g

Reading hRef
Calculating field g.h


Reading pRef
Reading field p_rgh

--> FOAM Warning : 
    From function const Foam::HashTable<Foam::List<int>, Foam::word>& Foam::polyBoundaryMesh::groupPatchIDs() const
    in file meshes/polyMesh/polyBoundaryMesh/polyBoundaryMesh.C at line 473
    Removing patchGroup 'wall' which clashes with patch 0 of the same name.
No MRF models present

Radiation model not active: radiationProperties not found
Selecting radiationModel none
No finite volume options present

Starting time loop

Time = 1

DILUPBiCGStab:  Solving for Ux, Initial residual = 1, Final residual = 0.0794303, No Iterations 1
DILUPBiCGStab:  Solving for Uy, Initial residual = 1, Final residual = 0.0075647, No Iterations 1
DILUPBiCGStab:  Solving for Uz, Initial residual = 1, Final residual = 0.0410491, No Iterations 1
DILUPBiCGStab:  Solving for e, Initial residual = 1, Final residual = 3.99e-06, No Iterations 1
DICPCG:  Solving for p_rgh, Initial residual = 0.969922, Final residual = 0.00758417, No Iterations 93
time step continuity errors : sum local = 3.04338, global = 0.0090575, cumulative = 0.0090575
DILUPBiCGStab:  Solving for epsilon, Initial residual = 0, Final residual = 0, No Iterations 0
DILUPBiCGStab:  Solving for k, Initial residual = 1, Final residual = 0.0252065, No Iterations 1
ExecutionTime = 0.11 s  ClockTime = 0 s

Time = 2

DILUPBiCGStab:  Solving for Ux, Initial residual = 0.599917, Final residual = 0.000313285, No Iterations 1
DILUPBiCGStab:  Solving for Uy, Initial residual = 0.993602, Final residual = 0.00017501, No Iterations 1
DILUPBiCGStab:  Solving for Uz, Initial residual = 0.969931, Final residual = 0.00219156, No Iterations 1
DILUPBiCGStab:  Solving for e, Initial residual = 0.200002, Final residual = 9.27824e-06, No Iterations 1
DICPCG:  Solving for p_rgh, Initial residual = 0.753303, Final residual = 0.00690505, No Iterations 89
time step continuity errors : sum local = 34.6321, global = 1.04455, cumulative = 1.05361
DILUPBiCGStab:  Solving for epsilon, Initial residual = 0, Final residual = 0, No Iterations 0
DILUPBiCGStab:  Solving for k, Initial residual = 0.253306, Final residual = 3.20863e-05, No Iterations 1
ExecutionTime = 0.12 s  ClockTime = 0 s

Time = 3

DILUPBiCGStab:  Solving for Ux, Initial residual = 0.961388, Final residual = 0.085339, No Iterations 1
DILUPBiCGStab:  Solving for Uy, Initial residual = 0.980831, Final residual = 0.00659267, No Iterations 1
DILUPBiCGStab:  Solving for Uz, Initial residual = 0.956467, Final residual = 0.0937516, No Iterations 1
DILUPBiCGStab:  Solving for e, Initial residual = 0.384059, Final residual = 0.0158509, No Iterations 1
DICPCG:  Solving for p_rgh, Initial residual = 0.974385, Final residual = 0.00934381, No Iterations 5
time step continuity errors : sum local = 8041.25, global = -95.4385, cumulative = -94.3849
DILUPBiCGStab:  Solving for epsilon, Initial residual = 0, Final residual = 0, No Iterations 0
DILUPBiCGStab:  Solving for k, Initial residual = 0.212446, Final residual = 0.0137891, No Iterations 1
ExecutionTime = 0.13 s  ClockTime = 0 s

Time = 4

DILUPBiCGStab:  Solving for Ux, Initial residual = 0.271783, Final residual = 0.0237221, No Iterations 1
DILUPBiCGStab:  Solving for Uy, Initial residual = 0.2726, Final residual = 0.00270597, No Iterations 1
DILUPBiCGStab:  Solving for Uz, Initial residual = 0.945827, Final residual = 0.0592226, No Iterations 1
DILUPBiCGStab:  Solving for e, Initial residual = 0.190206, Final residual = 0.00921502, No Iterations 1
DICPCG:  Solving for p_rgh, Initial residual = 0.77656, Final residual = 0.00763181, No Iterations 91
time step continuity errors : sum local = 4754.17, global = -99.0584, cumulative = -193.443
DILUPBiCGStab:  Solving for epsilon, Initial residual = 0, Final residual = 0, No Iterations 0
DILUPBiCGStab:  Solving for k, Initial residual = 0.120389, Final residual = 0.00560451, No Iterations 1
ExecutionTime = 0.13 s  ClockTime = 0 s

Time = 5

DILUPBiCGStab:  Solving for Ux, Initial residual = 0.538562, Final residual = 0.0228595, No Iterations 1
DILUPBiCGStab:  Solving for Uy, Initial residual = 0.310012, Final residual = 0.0301694, No Iterations 1
DILUPBiCGStab:  Solving for Uz, Initial residual = 0.290224, Final residual = 0.0121402, No Iterations 1
DILUPBiCGStab:  Solving for e, Initial residual = 0.164068, Final residual = 0.00521272, No Iterations 1
DICPCG:  Solving for p_rgh, Initial residual = 0.332339, Final residual = 0.0028524, No Iterations 93
time step continuity errors : sum local = 1677.22, global = -21.1984, cumulative = -214.642
DILUPBiCGStab:  Solving for epsilon, Initial residual = 0, Final residual = 0, No Iterations 0
DILUPBiCGStab:  Solving for k, Initial residual = 0.126167, Final residual = 0.0110581, No Iterations 1
ExecutionTime = 0.14 s  ClockTime = 0 s

Time = 6

DILUPBiCGStab:  Solving for Ux, Initial residual = 0.530778, Final residual = 0.0406271, No Iterations 1
DILUPBiCGStab:  Solving for Uy, Initial residual = 0.432364, Final residual = 0.0402415, No Iterations 1
DILUPBiCGStab:  Solving for Uz, Initial residual = 0.325157, Final residual = 0.0161328, No Iterations 1
DILUPBiCGStab:  Solving for e, Initial residual = 0.0991779, Final residual = 0.00292815, No Iterations 1
DICPCG:  Solving for p_rgh, Initial residual = 0.389879, Final residual = 0.00252961, No Iterations 93
time step continuity errors : sum local = 1257.5, global = 0.873024, cumulative = -213.769
DILUPBiCGStab:  Solving for epsilon, Initial residual = 0, Final residual = 0, No Iterations 0
DILUPBiCGStab:  Solving for k, Initial residual = 0.0929501, Final residual = 0.00576024, No Iterations 1
ExecutionTime = 0.14 s  ClockTime = 0 s

Time = 7

DILUPBiCGStab:  Solving for Ux, Initial residual = 0.24299, Final residual = 0.0108015, No Iterations 1
DILUPBiCGStab:  Solving for Uy, Initial residual = 0.39444, Final residual = 0.0325481, No Iterations 1
DILUPBiCGStab:  Solving for Uz, Initial residual = 0.242637, Final residual = 0.0123441, No Iterations 1
DILUPBiCGStab:  Solving for e, Initial residual = 0.081056, Final residual = 0.0020705, No Iterations 1
DICPCG:  Solving for p_rgh, Initial residual = 0.848531, Final residual = 0.00829928, No Iterations 94
time step continuity errors : sum local = 2500.39, global = 28.6366, cumulative = -185.132
DILUPBiCGStab:  Solving for epsilon, Initial residual = 0, Final residual = 0, No Iterations 0
DILUPBiCGStab:  Solving for k, Initial residual = 0.0683576, Final residual = 0.00388607, No Iterations 1
ExecutionTime = 0.15 s  ClockTime = 0 s

Time = 8

DILUPBiCGStab:  Solving for Ux, Initial residual = 0.285895, Final residual = 0.0100815, No Iterations 1
DILUPBiCGStab:  Solving for Uy, Initial residual = 0.225285, Final residual = 0.0169018, No Iterations 1
DILUPBiCGStab:  Solving for Uz, Initial residual = 0.191214, Final residual = 0.00764921, No Iterations 1
DILUPBiCGStab:  Solving for e, Initial residual = 0.0577332, Final residual = 0.00129009, No Iterations 1
DICPCG:  Solving for p_rgh, Initial residual = 0.705415, Final residual = 0.00693645, No Iterations 65
time step continuity errors : sum local = 1837.65, global = 107.037, cumulative = -78.0954
DILUPBiCGStab:  Solving for epsilon, Initial residual = 0, Final residual = 0, No Iterations 0
DILUPBiCGStab:  Solving for k, Initial residual = 0.0496528, Final residual = 0.00276716, No Iterations 1
ExecutionTime = 0.16 s  ClockTime = 0 s

Time = 9

DILUPBiCGStab:  Solving for Ux, Initial residual = 0.261035, Final residual = 0.00525825, No Iterations 1
DILUPBiCGStab:  Solving for Uy, Initial residual = 0.192655, Final residual = 0.0153327, No Iterations 1
DILUPBiCGStab:  Solving for Uz, Initial residual = 0.128364, Final residual = 0.00322665, No Iterations 1
DILUPBiCGStab:  Solving for e, Initial residual = 0.0467432, Final residual = 0.000841334, No Iterations 1
DICPCG:  Solving for p_rgh, Initial residual = 0.567486, Final residual = 0.00407735, No Iterations 92
time step continuity errors : sum local = 810.562, global = -6.41161, cumulative = -84.507
DILUPBiCGStab:  Solving for epsilon, Initial residual = 0, Final residual = 0, No Iterations 0
DILUPBiCGStab:  Solving for k, Initial residual = 0.0314325, Final residual = 0.00155727, No Iterations 1
ExecutionTime = 0.16 s  ClockTime = 0 s

Time = 10

DILUPBiCGStab:  Solving for Ux, Initial residual = 0.437775, Final residual = 0.0146694, No Iterations 1
DILUPBiCGStab:  Solving for Uy, Initial residual = 0.228913, Final residual = 0.013188, No Iterations 1
DILUPBiCGStab:  Solving for Uz, Initial residual = 0.107917, Final residual = 0.0046201, No Iterations 1
DILUPBiCGStab:  Solving for e, Initial residual = 0.0343073, Final residual = 0.000776048, No Iterations 1
DICPCG:  Solving for p_rgh, Initial residual = 0.260402, Final residual = 0.00188096, No Iterations 92
time step continuity errors : sum local = 792.039, global = -3.06221, cumulative = -87.5692
DILUPBiCGStab:  Solving for epsilon, Initial residual = 0, Final residual = 0, No Iterations 0
DILUPBiCGStab:  Solving for k, Initial residual = 0.0209178, Final residual = 0.000664621, No Iterations 1
ExecutionTime = 0.17 s  ClockTime = 0 s

Time = 11

DILUPBiCGStab:  Solving for Ux, Initial residual = 0.164434, Final residual = 0.00484594, No Iterations 1
DILUPBiCGStab:  Solving for Uy, Initial residual = 0.185472, Final residual = 0.00699462, No Iterations 1
DILUPBiCGStab:  Solving for Uz, Initial residual = 0.0813177, Final residual = 0.00157841, No Iterations 1
DILUPBiCGStab:  Solving for e, Initial residual = 0.0441708, Final residual = 0.00054518, No Iterations 1
DICPCG:  Solving for p_rgh, Initial residual = 0.587841, Final residual = 0.00327395, No Iterations 98
time step continuity errors : sum local = 418.411, global = 1.18939, cumulative = -86.3798
DILUPBiCGStab:  Solving for epsilon, Initial residual = 0, Final residual = 0, No Iterations 0
DILUPBiCGStab:  Solving for k, Initial residual = 0.013378, Final residual = 0.000241443, No Iterations 1
ExecutionTime = 0.17 s  ClockTime = 0 s

Time = 12

DILUPBiCGStab:  Solving for Ux, Initial residual = 0.527824, Final residual = 0.024801, No Iterations 1
DILUPBiCGStab:  Solving for Uy, Initial residual = 0.134038, Final residual = 0.00387198, No Iterations 1
DILUPBiCGStab:  Solving for Uz, Initial residual = 0.0735537, Final residual = 0.00148668, No Iterations 1
DILUPBiCGStab:  Solving for e, Initial residual = 0.0302767, Final residual = 0.000443778, No Iterations 1
DICPCG:  Solving for p_rgh, Initial residual = 0.233734, Final residual = 0.00137095, No Iterations 84
time step continuity errors : sum local = 669.205, global = -2.48249, cumulative = -88.8623
DILUPBiCGStab:  Solving for epsilon, Initial residual = 0, Final residual = 0, No Iterations 0
DILUPBiCGStab:  Solving for k, Initial residual = 0.0122351, Final residual = 0.000299511, No Iterations 1
ExecutionTime = 0.18 s  ClockTime = 0 s

Time = 13

DILUPBiCGStab:  Solving for Ux, Initial residual = 0.126393, Final residual = 0.00816303, No Iterations 1
DILUPBiCGStab:  Solving for Uy, Initial residual = 0.127365, Final residual = 0.00270745, No Iterations 1
DILUPBiCGStab:  Solving for Uz, Initial residual = 0.0507501, Final residual = 0.000849449, No Iterations 1
DILUPBiCGStab:  Solving for e, Initial residual = 0.0250005, Final residual = 0.000490472, No Iterations 1
DICPCG:  Solving for p_rgh, Initial residual = 0.402811, Final residual = 0.00371089, No Iterations 99
time step continuity errors : sum local = 755.705, global = 1.52226, cumulative = -87.34
DILUPBiCGStab:  Solving for epsilon, Initial residual = 0, Final residual = 0, No Iterations 0
DILUPBiCGStab:  Solving for k, Initial residual = 0.0106915, Final residual = 0.000430701, No Iterations 1
ExecutionTime = 0.19 s  ClockTime = 0 s

Time = 14

DILUPBiCGStab:  Solving for Ux, Initial residual = 0.227794, Final residual = 0.0225775, No Iterations 1
DILUPBiCGStab:  Solving for Uy, Initial residual = 0.159109, Final residual = 0.00766588, No Iterations 1
DILUPBiCGStab:  Solving for Uz, Initial residual = 0.0495089, Final residual = 0.00134723, No Iterations 1
DILUPBiCGStab:  Solving for e, Initial residual = 0.0331105, Final residual = 0.00078256, No Iterations 1
DICPCG:  Solving for p_rgh, Initial residual = 0.235461, Final residual = 0.0022337, No Iterations 110
time step continuity errors : sum local = 986.509, global = 10.1484, cumulative = -77.1917
DILUPBiCGStab:  Solving for epsilon, Initial residual = 0, Final residual = 0, No Iterations 0
DILUPBiCGStab:  Solving for k, Initial residual = 0.0107093, Final residual = 0.000379888, No Iterations 1
ExecutionTime = 0.19 s  ClockTime = 0 s

Time = 15

DILUPBiCGStab:  Solving for Ux, Initial residual = 0.272989, Final residual = 0.0199871, No Iterations 1
DILUPBiCGStab:  Solving for Uy, Initial residual = 0.146486, Final residual = 0.00645357, No Iterations 1
DILUPBiCGStab:  Solving for Uz, Initial residual = 0.047795, Final residual = 0.00147917, No Iterations 1
DILUPBiCGStab:  Solving for e, Initial residual = 0.0247857, Final residual = 0.000660848, No Iterations 1
DICPCG:  Solving for p_rgh, Initial residual = 0.332871, Final residual = 0.00263278, No Iterations 114
time step continuity errors : sum local = 922.837, global = 3.64237, cumulative = -73.5493
DILUPBiCGStab:  Solving for epsilon, Initial residual = 0, Final residual = 0, No Iterations 0
DILUPBiCGStab:  Solving for k, Initial residual = 0.00972269, Final residual = 0.00035993, No Iterations 1
ExecutionTime = 0.2 s  ClockTime = 0 s

Time = 16

DILUPBiCGStab:  Solving for Ux, Initial residual = 0.171315, Final residual = 0.011839, No Iterations 1
DILUPBiCGStab:  Solving for Uy, Initial residual = 0.162361, Final residual = 0.00856244, No Iterations 1
DILUPBiCGStab:  Solving for Uz, Initial residual = 0.0474289, Final residual = 0.00172122, No Iterations 1
DILUPBiCGStab:  Solving for e, Initial residual = 0.0353743, Final residual = 0.000968816, No Iterations 1
DICPCG:  Solving for p_rgh, Initial residual = 0.549222, Final residual = 0.00310707, No Iterations 103
time step continuity errors : sum local = 513.774, global = 1.1644, cumulative = -72.3849
DILUPBiCGStab:  Solving for epsilon, Initial residual = 0, Final residual = 0, No Iterations 0
DILUPBiCGStab:  Solving for k, Initial residual = 0.00857574, Final residual = 0.000276479, No Iterations 1
ExecutionTime = 0.2 s  ClockTime = 0 s

Time = 17

DILUPBiCGStab:  Solving for Ux, Initial residual = 0.272643, Final residual = 0.0210537, No Iterations 1
DILUPBiCGStab:  Solving for Uy, Initial residual = 0.144346, Final residual = 0.00691553, No Iterations 1
DILUPBiCGStab:  Solving for Uz, Initial residual = 0.045242, Final residual = 0.00146646, No Iterations 1
DILUPBiCGStab:  Solving for e, Initial residual = 0.0524338, Final residual = 0.00140105, No Iterations 1
DICPCG:  Solving for p_rgh, Initial residual = 0.241808, Final residual = 0.00211863, No Iterations 108
time step continuity errors : sum local = 662.043, global = 2.89988, cumulative = -69.485
DILUPBiCGStab:  Solving for epsilon, Initial residual = 0, Final residual = 0, No Iterations 0
DILUPBiCGStab:  Solving for k, Initial residual = 0.00736702, Final residual = 0.000241129, No Iterations 1
ExecutionTime = 0.21 s  ClockTime = 0 s

Time = 18

DILUPBiCGStab:  Solving for Ux, Initial residual = 0.194516, Final residual = 0.0138661, No Iterations 1
DILUPBiCGStab:  Solving for Uy, Initial residual = 0.123675, Final residual = 0.00607464, No Iterations 1
DILUPBiCGStab:  Solving for Uz, Initial residual = 0.0393792, Final residual = 0.00119065, No Iterations 1
DILUPBiCGStab:  Solving for e, Initial residual = 0.0307569, Final residual = 0.000785268, No Iterations 1
DICPCG:  Solving for p_rgh, Initial residual = 0.2174, Final residual = 0.00156962, No Iterations 103
time step continuity errors : sum local = 451.272, global = -0.245307, cumulative = -69.7303
DILUPBiCGStab:  Solving for epsilon, Initial residual = 0, Final residual = 0, No Iterations 0
DILUPBiCGStab:  Solving for k, Initial residual = 0.00653385, Final residual = 0.000217411, No Iterations 1
ExecutionTime = 0.22 s  ClockTime = 0 s

Time = 19

DILUPBiCGStab:  Solving for Ux, Initial residual = 0.066162, Final residual = 0.00397993, No Iterations 1
DILUPBiCGStab:  Solving for Uy, Initial residual = 0.0940933, Final residual = 0.00461633, No Iterations 1
DILUPBiCGStab:  Solving for Uz, Initial residual = 0.0366777, Final residual = 0.0011242, No Iterations 1
DILUPBiCGStab:  Solving for e, Initial residual = 0.0194431, Final residual = 0.000544347, No Iterations 1
DICPCG:  Solving for p_rgh, Initial residual = 0.290443, Final residual = 0.00255215, No Iterations 102
time step continuity errors : sum local = 484.905, global = -2.23472, cumulative = -71.965
DILUPBiCGStab:  Solving for epsilon, Initial residual = 0, Final residual = 0, No Iterations 0
DILUPBiCGStab:  Solving for k, Initial residual = 0.00578675, Final residual = 0.000189636, No Iterations 1
ExecutionTime = 0.22 s  ClockTime = 0 s

Time = 20

DILUPBiCGStab:  Solving for Ux, Initial residual = 0.0899158, Final residual = 0.00650373, No Iterations 1
DILUPBiCGStab:  Solving for Uy, Initial residual = 0.0887322, Final residual = 0.00454022, No Iterations 1
DILUPBiCGStab:  Solving for Uz, Initial residual = 0.0344469, Final residual = 0.00111357, No Iterations 1
DILUPBiCGStab:  Solving for e, Initial residual = 0.0177961, Final residual = 0.000523861, No Iterations 1
DICPCG:  Solving for p_rgh, Initial residual = 0.305958, Final residual = 0.00251823, No Iterations 107
time step continuity errors : sum local = 418.892, global = -0.365274, cumulative = -72.3303
DILUPBiCGStab:  Solving for epsilon, Initial residual = 0, Final residual = 0, No Iterations 0
DILUPBiCGStab:  Solving for k, Initial residual = 0.0053683, Final residual = 0.000178669, No Iterations 1
ExecutionTime = 0.23 s  ClockTime = 0 s

Time = 21

DILUPBiCGStab:  Solving for Ux, Initial residual = 0.0873303, Final residual = 0.00582622, No Iterations 1
DILUPBiCGStab:  Solving for Uy, Initial residual = 0.0909402, Final residual = 0.00491126, No Iterations 1
DILUPBiCGStab:  Solving for Uz, Initial residual = 0.0326514, Final residual = 0.00111063, No Iterations 1
DILUPBiCGStab:  Solving for e, Initial residual = 0.0173427, Final residual = 0.000500524, No Iterations 1
DICPCG:  Solving for p_rgh, Initial residual = 0.284124, Final residual = 0.0020997, No Iterations 103
time step continuity errors : sum local = 355.476, global = -0.868635, cumulative = -73.199
DILUPBiCGStab:  Solving for epsilon, Initial residual = 0, Final residual = 0, No Iterations 0
DILUPBiCGStab:  Solving for k, Initial residual = 0.00541769, Final residual = 0.000185349, No Iterations 1
ExecutionTime = 0.23 s  ClockTime = 0 s

Time = 22

DILUPBiCGStab:  Solving for Ux, Initial residual = 0.0528192, Final residual = 0.00265699, No Iterations 1
DILUPBiCGStab:  Solving for Uy, Initial residual = 0.0883201, Final residual = 0.00438458, No Iterations 1
DILUPBiCGStab:  Solving for Uz, Initial residual = 0.0305124, Final residual = 0.00101907, No Iterations 1
DILUPBiCGStab:  Solving for e, Initial residual = 0.0202181, Final residual = 0.000544655, No Iterations 1
DICPCG:  Solving for p_rgh, Initial residual = 0.284964, Final residual = 0.00209981, No Iterations 102
time step continuity errors : sum local = 319.555, global = -0.896689, cumulative = -74.0956
DILUPBiCGStab:  Solving for epsilon, Initial residual = 0, Final residual = 0, No Iterations 0
DILUPBiCGStab:  Solving for k, Initial residual = 0.00508613, Final residual = 0.00017719, No Iterations 1
ExecutionTime = 0.24 s  ClockTime = 0 s

Time = 23

DILUPBiCGStab:  Solving for Ux, Initial residual = 0.044018, Final residual = 0.00244808, No Iterations 1
DILUPBiCGStab:  Solving for Uy, Initial residual = 0.0920912, Final residual = 0.00490223, No Iterations 1
DILUPBiCGStab:  Solving for Uz, Initial residual = 0.0277498, Final residual = 0.000914872, No Iterations 1
DILUPBiCGStab:  Solving for e, Initial residual = 0.020455, Final residual = 0.000550538, No Iterations 1
DICPCG:  Solving for p_rgh, Initial residual = 0.280977, Final residual = 0.00251403, No Iterations 76
time step continuity errors : sum local = 333.43, global = -17.2615, cumulative = -91.3571
DILUPBiCGStab:  Solving for epsilon, Initial residual = 0, Final residual = 0, No Iterations 0
DILUPBiCGStab:  Solving for k, Initial residual = 0.00453903, Final residual = 0.000157538, No Iterations 1
ExecutionTime = 0.25 s  ClockTime = 0 s

Time = 24

DILUPBiCGStab:  Solving for Ux, Initial residual = 0.0490983, Final residual = 0.00309686, No Iterations 1
DILUPBiCGStab:  Solving for Uy, Initial residual = 0.0921568, Final residual = 0.00501535, No Iterations 1
DILUPBiCGStab:  Solving for Uz, Initial residual = 0.0249204, Final residual = 0.000780911, No Iterations 1
DILUPBiCGStab:  Solving for e, Initial residual = 0.0169257, Final residual = 0.000472736, No Iterations 1
DICPCG:  Solving for p_rgh, Initial residual = 0.251849, Final residual = 0.00209555, No Iterations 93
time step continuity errors : sum local = 276.376, global = -6.76777, cumulative = -98.1249
DILUPBiCGStab:  Solving for epsilon, Initial residual = 0, Final residual = 0, No Iterations 0
DILUPBiCGStab:  Solving for k, Initial residual = 0.00433129, Final residual = 0.000150918, No Iterations 1
ExecutionTime = 0.26 s  ClockTime = 0 s

Time = 25

DILUPBiCGStab:  Solving for Ux, Initial residual = 0.0369706, Final residual = 0.00215181, No Iterations 1
DILUPBiCGStab:  Solving for Uy, Initial residual = 0.0842329, Final residual = 0.00410177, No Iterations 1
DILUPBiCGStab:  Solving for Uz, Initial residual = 0.0226367, Final residual = 0.000678579, No Iterations 1
DILUPBiCGStab:  Solving for e, Initial residual = 0.0147258, Final residual = 0.000430585, No Iterations 1
DICPCG:  Solving for p_rgh, Initial residual = 0.223101, Final residual = 0.00178897, No Iterations 99
time step continuity errors : sum local = 230.443, global = -1.01318, cumulative = -99.1381
DILUPBiCGStab:  Solving for epsilon, Initial residual = 0, Final residual = 0, No Iterations 0
DILUPBiCGStab:  Solving for k, Initial residual = 0.00414252, Final residual = 0.000149171, No Iterations 1
ExecutionTime = 0.27 s  ClockTime = 0 s

Time = 26

DILUPBiCGStab:  Solving for Ux, Initial residual = 0.0368369, Final residual = 0.00169166, No Iterations 1
DILUPBiCGStab:  Solving for Uy, Initial residual = 0.0729051, Final residual = 0.00314881, No Iterations 1
DILUPBiCGStab:  Solving for Uz, Initial residual = 0.0210687, Final residual = 0.000606685, No Iterations 1
DILUPBiCGStab:  Solving for e, Initial residual = 0.012682, Final residual = 0.000372086, No Iterations 1
DICPCG:  Solving for p_rgh, Initial residual = 0.189894, Final residual = 0.00135468, No Iterations 100
time step continuity errors : sum local = 188.655, global = 0.0779581, cumulative = -99.0601
DILUPBiCGStab:  Solving for epsilon, Initial residual = 0, Final residual = 0, No Iterations 0
DILUPBiCGStab:  Solving for k, Initial residual = 0.00397894, Final residual = 0.000146405, No Iterations 1
ExecutionTime = 0.27 s  ClockTime = 0 s

Time = 27

DILUPBiCGStab:  Solving for Ux, Initial residual = 0.0441469, Final residual = 0.00210693, No Iterations 1
DILUPBiCGStab:  Solving for Uy, Initial residual = 0.0614681, Final residual = 0.00239244, No Iterations 1
DILUPBiCGStab:  Solving for Uz, Initial residual = 0.019835, Final residual = 0.000561025, No Iterations 1
DILUPBiCGStab:  Solving for e, Initial residual = 0.0119071, Final residual = 0.000341543, No Iterations 1
DICPCG:  Solving for p_rgh, Initial residual = 0.170044, Final residual = 0.00150747, No Iterations 100
time step continuity errors : sum local = 219.988, global = -0.443498, cumulative = -99.5036
DILUPBiCGStab:  Solving for epsilon, Initial residual = 0, Final residual = 0, No Iterations 0
DILUPBiCGStab:  Solving for k, Initial residual = 0.00384728, Final residual = 0.00014226, No Iterations 1
ExecutionTime = 0.28 s  ClockTime = 0 s

Time = 28

DILUPBiCGStab:  Solving for Ux, Initial residual = 0.0548949, Final residual = 0.00277176, No Iterations 1
DILUPBiCGStab:  Solving for Uy, Initial residual = 0.0542913, Final residual = 0.00191834, No Iterations 1
DILUPBiCGStab:  Solving for Uz, Initial residual = 0.0189421, Final residual = 0.000521024, No Iterations 1
DILUPBiCGStab:  Solving for e, Initial residual = 0.0109307, Final residual = 0.000300838, No Iterations 1
DICPCG:  Solving for p_rgh, Initial residual = 0.160395, Final residual = 0.00157113, No Iterations 99
time step continuity errors : sum local = 249.848, global = 0.887834, cumulative = -98.6158
DILUPBiCGStab:  Solving for epsilon, Initial residual = 0, Final residual = 0, No Iterations 0
DILUPBiCGStab:  Solving for k, Initial residual = 0.00376737, Final residual = 0.000138083, No Iterations 1
ExecutionTime = 0.29 s  ClockTime = 0 s

Time = 29

DILUPBiCGStab:  Solving for Ux, Initial residual = 0.0791334, Final residual = 0.00420927, No Iterations 1
DILUPBiCGStab:  Solving for Uy, Initial residual = 0.0588658, Final residual = 0.00203061, No Iterations 1
DILUPBiCGStab:  Solving for Uz, Initial residual = 0.018734, Final residual = 0.000477944, No Iterations 1
DILUPBiCGStab:  Solving for e, Initial residual = 0.00963134, Final residual = 0.000247981, No Iterations 1
DICPCG:  Solving for p_rgh, Initial residual = 0.148425, Final residual = 0.00135201, No Iterations 98
time step continuity errors : sum local = 260.269, global = -1.85348, cumulative = -100.469
DILUPBiCGStab:  Solving for epsilon, Initial residual = 0, Final residual = 0, No Iterations 0
DILUPBiCGStab:  Solving for k, Initial residual = 0.00365596, Final residual = 0.000137434, No Iterations 1
ExecutionTime = 0.29 s  ClockTime = 0 s

Time = 30

DILUPBiCGStab:  Solving for Ux, Initial residual = 0.0898555, Final residual = 0.00500582, No Iterations 1
DILUPBiCGStab:  Solving for Uy, Initial residual = 0.0623829, Final residual = 0.00235474, No Iterations 1
DILUPBiCGStab:  Solving for Uz, Initial residual = 0.0176756, Final residual = 0.00043443, No Iterations 1
DILUPBiCGStab:  Solving for e, Initial residual = 0.00900911, Final residual = 0.000222655, No Iterations 1
DICPCG:  Solving for p_rgh, Initial residual = 0.132558, Final residual = 0.0010711, No Iterations 99
time step continuity errors : sum local = 234.975, global = -0.497685, cumulative = -100.967
DILUPBiCGStab:  Solving for epsilon, Initial residual = 0, Final residual = 0, No Iterations 0
DILUPBiCGStab:  Solving for k, Initial residual = 0.00355777, Final residual = 0.000130514, No Iterations 1
ExecutionTime = 0.3 s  ClockTime = 0 s

Time = 31

DILUPBiCGStab:  Solving for Ux, Initial residual = 0.122516, Final residual = 0.00574395, No Iterations 1
DILUPBiCGStab:  Solving for Uy, Initial residual = 0.0748721, Final residual = 0.00279646, No Iterations 1
DILUPBiCGStab:  Solving for Uz, Initial residual = 0.0187232, Final residual = 0.000422158, No Iterations 1
DILUPBiCGStab:  Solving for e, Initial residual = 0.00872178, Final residual = 0.000178822, No Iterations 1
DICPCG:  Solving for p_rgh, Initial residual = 0.103907, Final residual = 0.000932403, No Iterations 95
time step continuity errors : sum local = 301.773, global = -0.369427, cumulative = -101.336
DILUPBiCGStab:  Solving for epsilon, Initial residual = 0, Final residual = 0, No Iterations 0
DILUPBiCGStab:  Solving for k, Initial residual = 0.00358201, Final residual = 0.000132652, No Iterations 1
ExecutionTime = 0.31 s  ClockTime = 0 s

Time = 32

DILUPBiCGStab:  Solving for Ux, Initial residual = 0.13193, Final residual = 0.00532321, No Iterations 1
DILUPBiCGStab:  Solving for Uy, Initial residual = 0.071889, Final residual = 0.00228863, No Iterations 1
DILUPBiCGStab:  Solving for Uz, Initial residual = 0.017675, Final residual = 0.000384038, No Iterations 1
DILUPBiCGStab:  Solving for e, Initial residual = 0.00839513, Final residual = 0.000156685, No Iterations 1
DICPCG:  Solving for p_rgh, Initial residual = 0.075814, Final residual = 0.000512118, No Iterations 96
time step continuity errors : sum local = 263.298, global = -0.938216, cumulative = -102.275
DILUPBiCGStab:  Solving for epsilon, Initial residual = 0, Final residual = 0, No Iterations 0
DILUPBiCGStab:  Solving for k, Initial residual = 0.00338002, Final residual = 0.000123493, No Iterations 1
ExecutionTime = 0.31 s  ClockTime = 0 s

Time = 33

DILUPBiCGStab:  Solving for Ux, Initial residual = 0.133766, Final residual = 0.00427762, No Iterations 1
DILUPBiCGStab:  Solving for Uy, Initial residual = 0.0668347, Final residual = 0.00170677, No Iterations 1
DILUPBiCGStab:  Solving for Uz, Initial residual = 0.0166754, Final residual = 0.00034511, No Iterations 1
DILUPBiCGStab:  Solving for e, Initial residual = 0.0082055, Final residual = 0.000147244, No Iterations 1
DICPCG:  Solving for p_rgh, Initial residual = 0.0417069, Final residual = 0.000334534, No Iterations 97
time step continuity errors : sum local = 506.996, global = -1.66547, cumulative = -103.94
DILUPBiCGStab:  Solving for epsilon, Initial residual = 0, Final residual = 0, No Iterations 0
DILUPBiCGStab:  Solving for k, Initial residual = 0.00350066, Final residual = 0.000129867, No Iterations 1
ExecutionTime = 0.32 s  ClockTime = 0 s

Time = 34

DILUPBiCGStab:  Solving for Ux, Initial residual = 0.112641, Final residual = 0.00367815, No Iterations 1
DILUPBiCGStab:  Solving for Uy, Initial residual = 0.0606727, Final residual = 0.00140457, No Iterations 1
DILUPBiCGStab:  Solving for Uz, Initial residual = 0.0150041, Final residual = 0.000298924, No Iterations 1
DILUPBiCGStab:  Solving for e, Initial residual = 0.00868774, Final residual = 0.000162254, No Iterations 1
DICPCG:  Solving for p_rgh, Initial residual = 0.0894698, Final residual = 0.000662847, No Iterations 97
time step continuity errors : sum local = 404.948, global = 2.20275, cumulative = -101.737
DILUPBiCGStab:  Solving for epsilon, Initial residual = 0, Final residual = 0, No Iterations 0
DILUPBiCGStab:  Solving for k, Initial residual = 0.00336313, Final residual = 0.000123633, No Iterations 1
ExecutionTime = 0.32 s  ClockTime = 0 s

Time = 35

DILUPBiCGStab:  Solving for Ux, Initial residual = 0.120566, Final residual = 0.00355145, No Iterations 1
DILUPBiCGStab:  Solving for Uy, Initial residual = 0.063657, Final residual = 0.0014917, No Iterations 1
DILUPBiCGStab:  Solving for Uz, Initial residual = 0.0138673, Final residual = 0.000278509, No Iterations 1
DILUPBiCGStab:  Solving for e, Initial residual = 0.00873359, Final residual = 0.000162376, No Iterations 1
DICPCG:  Solving for p_rgh, Initial residual = 0.151554, Final residual = 0.00106139, No Iterations 99
time step continuity errors : sum local = 263.758, global = -0.353549, cumulative = -102.091
DILUPBiCGStab:  Solving for epsilon, Initial residual = 0, Final residual = 0, No Iterations 0
DILUPBiCGStab:  Solving for k, Initial residual = 0.00327909, Final residual = 0.000120459, No Iterations 1
ExecutionTime = 0.33 s  ClockTime = 0 s

Time = 36

DILUPBiCGStab:  Solving for Ux, Initial residual = 0.0917077, Final residual = 0.00327652, No Iterations 1
DILUPBiCGStab:  Solving for Uy, Initial residual = 0.0639136, Final residual = 0.00209631, No Iterations 1
DILUPBiCGStab:  Solving for Uz, Initial residual = 0.0129515, Final residual = 0.000252202, No Iterations 1
DILUPBiCGStab:  Solving for e, Initial residual = 0.00833142, Final residual = 0.000178996, No Iterations 1
DICPCG:  Solving for p_rgh, Initial residual = 0.191343, Final residual = 0.00153239, No Iterations 98
time step continuity errors : sum local = 255.309, global = 0.864653, cumulative = -101.226
DILUPBiCGStab:  Solving for epsilon, Initial residual = 0, Final residual = 0, No Iterations 0
DILUPBiCGStab:  Solving for k, Initial residual = 0.00316595, Final residual = 0.000113172, No Iterations 1
ExecutionTime = 0.34 s  ClockTime = 0 s

Time = 37

DILUPBiCGStab:  Solving for Ux, Initial residual = 0.0723515, Final residual = 0.00293801, No Iterations 1
DILUPBiCGStab:  Solving for Uy, Initial residual = 0.053854, Final residual = 0.00175457, No Iterations 1
DILUPBiCGStab:  Solving for Uz, Initial residual = 0.0124778, Final residual = 0.000235952, No Iterations 1
DILUPBiCGStab:  Solving for e, Initial residual = 0.00759434, Final residual = 0.000155726, No Iterations 1
DICPCG:  Solving for p_rgh, Initial residual = 0.310277, Final residual = 0.00207176, No Iterations 99
time step continuity errors : sum local = 238.048, global = -2.21819, cumulative = -103.444
DILUPBiCGStab:  Solving for epsilon, Initial residual = 0, Final residual = 0, No Iterations 0
DILUPBiCGStab:  Solving for k, Initial residual = 0.00306769, Final residual = 0.000107128, No Iterations 1
ExecutionTime = 0.34 s  ClockTime = 0 s

Time = 38

DILUPBiCGStab:  Solving for Ux, Initial residual = 0.0687732, Final residual = 0.00193922, No Iterations 1
DILUPBiCGStab:  Solving for Uy, Initial residual = 0.0491798, Final residual = 0.00128046, No Iterations 1
DILUPBiCGStab:  Solving for Uz, Initial residual = 0.0118694, Final residual = 0.000217678, No Iterations 1
DILUPBiCGStab:  Solving for e, Initial residual = 0.00720117, Final residual = 0.000147308, No Iterations 1
DICPCG:  Solving for p_rgh, Initial residual = 0.207609, Final residual = 0.00204033, No Iterations 97
time step continuity errors : sum local = 303.813, global = -0.509041, cumulative = -103.953
DILUPBiCGStab:  Solving for epsilon, Initial residual = 0, Final residual = 0, No Iterations 0
DILUPBiCGStab:  Solving for k, Initial residual = 0.00301466, Final residual = 0.000102065, No Iterations 1
ExecutionTime = 0.35 s  ClockTime = 0 s

Time = 39

DILUPBiCGStab:  Solving for Ux, Initial residual = 0.0665424, Final residual = 0.00150832, No Iterations 1
DILUPBiCGStab:  Solving for Uy, Initial residual = 0.0540526, Final residual = 0.00171266, No Iterations 1
DILUPBiCGStab:  Solving for Uz, Initial residual = 0.0111757, Final residual = 0.000200499, No Iterations 1
DILUPBiCGStab:  Solving for e, Initial residual = 0.0071608, Final residual = 0.000141835, No Iterations 1
DICPCG:  Solving for p_rgh, Initial residual = 0.165104, Final residual = 0.00105879, No Iterations 96
time step continuity errors : sum local = 157.073, global = 1.27642, cumulative = -102.677
DILUPBiCGStab:  Solving for epsilon, Initial residual = 0, Final residual = 0, No Iterations 0
DILUPBiCGStab:  Solving for k, Initial residual = 0.0029801, Final residual = 9.87248e-05, No Iterations 1
ExecutionTime = 0.35 s  ClockTime = 0 s

Time = 40

DILUPBiCGStab:  Solving for Ux, Initial residual = 0.0535612, Final residual = 0.00144484, No Iterations 1
DILUPBiCGStab:  Solving for Uy, Initial residual = 0.0542159, Final residual = 0.00151183, No Iterations 1
DILUPBiCGStab:  Solving for Uz, Initial residual = 0.010413, Final residual = 0.000183985, No Iterations 1
DILUPBiCGStab:  Solving for e, Initial residual = 0.00676388, Final residual = 0.000135729, No Iterations 1
DICPCG:  Solving for p_rgh, Initial residual = 0.177673, Final residual = 0.00117962, No Iterations 98
time step continuity errors : sum local = 154.901, global = 0.564473, cumulative = -102.113
DILUPBiCGStab:  Solving for epsilon, Initial residual = 0, Final residual = 0, No Iterations 0
DILUPBiCGStab:  Solving for k, Initial residual = 0.00298441, Final residual = 9.74838e-05, No Iterations 1
ExecutionTime = 0.36 s  ClockTime = 0 s

Time = 41

DILUPBiCGStab:  Solving for Ux, Initial residual = 0.04177, Final residual = 0.00130943, No Iterations 1
DILUPBiCGStab:  Solving for Uy, Initial residual = 0.052023, Final residual = 0.00113766, No Iterations 1
DILUPBiCGStab:  Solving for Uz, Initial residual = 0.0102797, Final residual = 0.000180469, No Iterations 1
DILUPBiCGStab:  Solving for e, Initial residual = 0.00622345, Final residual = 0.00013147, No Iterations 1
DICPCG:  Solving for p_rgh, Initial residual = 0.222072, Final residual = 0.0021807, No Iterations 98
time step continuity errors : sum local = 225.453, global = 0.425542, cumulative = -101.687
DILUPBiCGStab:  Solving for epsilon, Initial residual = 0, Final residual = 0, No Iterations 0
DILUPBiCGStab:  Solving for k, Initial residual = 0.00299675, Final residual = 9.80926e-05, No Iterations 1
ExecutionTime = 0.37 s  ClockTime = 0 s

Time = 42

DILUPBiCGStab:  Solving for Ux, Initial residual = 0.0402279, Final residual = 0.00126407, No Iterations 1
DILUPBiCGStab:  Solving for Uy, Initial residual = 0.0528324, Final residual = 0.00110769, No Iterations 1
DILUPBiCGStab:  Solving for Uz, Initial residual = 0.0103103, Final residual = 0.000181798, No Iterations 1
DILUPBiCGStab:  Solving for e, Initial residual = 0.0060546, Final residual = 0.000131296, No Iterations 1
DICPCG:  Solving for p_rgh, Initial residual = 0.198612, Final residual = 0.00122186, No Iterations 98
time step continuity errors : sum local = 140.186, global = -0.61269, cumulative = -102.3
DILUPBiCGStab:  Solving for epsilon, Initial residual = 0, Final residual = 0, No Iterations 0
DILUPBiCGStab:  Solving for k, Initial residual = 0.00300512, Final residual = 9.91756e-05, No Iterations 1
ExecutionTime = 0.37 s  ClockTime = 0 s

Time = 43

DILUPBiCGStab:  Solving for Ux, Initial residual = 0.0389128, Final residual = 0.00114629, No Iterations 1
DILUPBiCGStab:  Solving for Uy, Initial residual = 0.0510129, Final residual = 0.00108781, No Iterations 1
DILUPBiCGStab:  Solving for Uz, Initial residual = 0.009659, Final residual = 0.000175343, No Iterations 1
DILUPBiCGStab:  Solving for e, Initial residual = 0.00609358, Final residual = 0.000133068, No Iterations 1
DICPCG:  Solving for p_rgh, Initial residual = 0.149716, Final residual = 0.000990903, No Iterations 98
time step continuity errors : sum local = 128.92, global = -0.225973, cumulative = -102.526
DILUPBiCGStab:  Solving for epsilon, Initial residual = 0, Final residual = 0, No Iterations 0
DILUPBiCGStab:  Solving for k, Initial residual = 0.00300166, Final residual = 9.94654e-05, No Iterations 1
ExecutionTime = 0.38 s  ClockTime = 0 s

Time = 44

DILUPBiCGStab:  Solving for Ux, Initial residual = 0.044732, Final residual = 0.00128682, No Iterations 1
DILUPBiCGStab:  Solving for Uy, Initial residual = 0.0478233, Final residual = 0.00109735, No Iterations 1
DILUPBiCGStab:  Solving for Uz, Initial residual = 0.00947334, Final residual = 0.000176459, No Iterations 1
DILUPBiCGStab:  Solving for e, Initial residual = 0.00613947, Final residual = 0.000134154, No Iterations 1
DICPCG:  Solving for p_rgh, Initial residual = 0.116662, Final residual = 0.00104848, No Iterations 98
time step continuity errors : sum local = 156.738, global = -0.569068, cumulative = -103.095
DILUPBiCGStab:  Solving for epsilon, Initial residual = 0, Final residual = 0, No Iterations 0
DILUPBiCGStab:  Solving for k, Initial residual = 0.0029859, Final residual = 9.86319e-05, No Iterations 1
ExecutionTime = 0.38 s  ClockTime = 0 s

Time = 45

DILUPBiCGStab:  Solving for Ux, Initial residual = 0.0484554, Final residual = 0.00137179, No Iterations 1
DILUPBiCGStab:  Solving for Uy, Initial residual = 0.0442896, Final residual = 0.00107435, No Iterations 1
DILUPBiCGStab:  Solving for Uz, Initial residual = 0.00917623, Final residual = 0.000171471, No Iterations 1
DILUPBiCGStab:  Solving for e, Initial residual = 0.00614079, Final residual = 0.000132283, No Iterations 1
DICPCG:  Solving for p_rgh, Initial residual = 0.0978718, Final residual = 0.000974035, No Iterations 97
time step continuity errors : sum local = 152.187, global = -0.638612, cumulative = -103.733
DILUPBiCGStab:  Solving for epsilon, Initial residual = 0, Final residual = 0, No Iterations 0
DILUPBiCGStab:  Solving for k, Initial residual = 0.00298417, Final residual = 9.96458e-05, No Iterations 1
ExecutionTime = 0.39 s  ClockTime = 0 s

Time = 46

DILUPBiCGStab:  Solving for Ux, Initial residual = 0.0551887, Final residual = 0.00166684, No Iterations 1
DILUPBiCGStab:  Solving for Uy, Initial residual = 0.0439469, Final residual = 0.00114091, No Iterations 1
DILUPBiCGStab:  Solving for Uz, Initial residual = 0.00912637, Final residual = 0.000174659, No Iterations 1
DILUPBiCGStab:  Solving for e, Initial residual = 0.0062336, Final residual = 0.000133595, No Iterations 1
DICPCG:  Solving for p_rgh, Initial residual = 0.0843455, Final residual = 0.000628793, No Iterations 98
time step continuity errors : sum local = 107.53, global = 0.00148327, cumulative = -103.732
DILUPBiCGStab:  Solving for epsilon, Initial residual = 0, Final residual = 0, No Iterations 0
DILUPBiCGStab:  Solving for k, Initial residual = 0.0029864, Final residual = 0.000100794, No Iterations 1
ExecutionTime = 0.4 s  ClockTime = 0 s

Time = 47

DILUPBiCGStab:  Solving for Ux, Initial residual = 0.0638633, Final residual = 0.00210352, No Iterations 1
DILUPBiCGStab:  Solving for Uy, Initial residual = 0.0445871, Final residual = 0.00120971, No Iterations 1
DILUPBiCGStab:  Solving for Uz, Initial residual = 0.00897895, Final residual = 0.000180228, No Iterations 1
DILUPBiCGStab:  Solving for e, Initial residual = 0.00636251, Final residual = 0.000135586, No Iterations 1
DICPCG:  Solving for p_rgh, Initial residual = 0.0805168, Final residual = 0.000551662, No Iterations 98
time step continuity errors : sum local = 97.8835, global = 1.30063, cumulative = -102.431
DILUPBiCGStab:  Solving for epsilon, Initial residual = 0, Final residual = 0, No Iterations 0
DILUPBiCGStab:  Solving for k, Initial residual = 0.00297943, Final residual = 0.000101558, No Iterations 1
ExecutionTime = 0.4 s  ClockTime = 0 s

Time = 48

DILUPBiCGStab:  Solving for Ux, Initial residual = 0.0669162, Final residual = 0.00230653, No Iterations 1
DILUPBiCGStab:  Solving for Uy, Initial residual = 0.0431253, Final residual = 0.00120637, No Iterations 1
DILUPBiCGStab:  Solving for Uz, Initial residual = 0.00866773, Final residual = 0.000182219, No Iterations 1
DILUPBiCGStab:  Solving for e, Initial residual = 0.00648077, Final residual = 0.000137531, No Iterations 1
DICPCG:  Solving for p_rgh, Initial residual = 0.0759832, Final residual = 0.00068649, No Iterations 96
time step continuity errors : sum local = 123.918, global = 0.791586, cumulative = -101.64
DILUPBiCGStab:  Solving for epsilon, Initial residual = 0, Final residual = 0, No Iterations 0
DILUPBiCGStab:  Solving for k, Initial residual = 0.00297789, Final residual = 0.000101667, No Iterations 1
ExecutionTime = 0.41 s  ClockTime = 1 s

Time = 49

DILUPBiCGStab:  Solving for Ux, Initial residual = 0.0626432, Final residual = 0.00220656, No Iterations 1
DILUPBiCGStab:  Solving for Uy, Initial residual = 0.0407743, Final residual = 0.00120966, No Iterations 1
DILUPBiCGStab:  Solving for Uz, Initial residual = 0.00843587, Final residual = 0.000185894, No Iterations 1
DILUPBiCGStab:  Solving for e, Initial residual = 0.00659623, Final residual = 0.000139053, No Iterations 1
DICPCG:  Solving for p_rgh, Initial residual = 0.0747941, Final residual = 0.000555614, No Iterations 98
time step continuity errors : sum local = 95.2995, global = 0.235881, cumulative = -101.404
DILUPBiCGStab:  Solving for epsilon, Initial residual = 0, Final residual = 0, No Iterations 0
DILUPBiCGStab:  Solving for k, Initial residual = 0.00298532, Final residual = 0.000101813, No Iterations 1
ExecutionTime = 0.42 s  ClockTime = 1 s

Time = 50

DILUPBiCGStab:  Solving for Ux, Initial residual = 0.0551833, Final residual = 0.00190387, No Iterations 1
DILUPBiCGStab:  Solving for Uy, Initial residual = 0.0380719, Final residual = 0.00119643, No Iterations 1
DILUPBiCGStab:  Solving for Uz, Initial residual = 0.00828042, Final residual = 0.000187365, No Iterations 1
DILUPBiCGStab:  Solving for e, Initial residual = 0.00671794, Final residual = 0.000140199, No Iterations 1
DICPCG:  Solving for p_rgh, Initial residual = 0.0791601, Final residual = 0.000708718, No Iterations 73
time step continuity errors : sum local = 110.151, global = -4.83051, cumulative = -106.234
DILUPBiCGStab:  Solving for epsilon, Initial residual = 0, Final residual = 0, No Iterations 0
DILUPBiCGStab:  Solving for k, Initial residual = 0.00295649, Final residual = 0.000100549, No Iterations 1
ExecutionTime = 0.42 s  ClockTime = 1 s

Time = 51

DILUPBiCGStab:  Solving for Ux, Initial residual = 0.0466162, Final residual = 0.00144898, No Iterations 1
DILUPBiCGStab:  Solving for Uy, Initial residual = 0.0353734, Final residual = 0.00112976, No Iterations 1
DILUPBiCGStab:  Solving for Uz, Initial residual = 0.00801193, Final residual = 0.000184701, No Iterations 1
DILUPBiCGStab:  Solving for e, Initial residual = 0.00677341, Final residual = 0.000139743, No Iterations 1
DICPCG:  Solving for p_rgh, Initial residual = 0.0825245, Final residual = 0.000820708, No Iterations 86
time step continuity errors : sum local = 114.76, global = -2.94433, cumulative = -109.179
DILUPBiCGStab:  Solving for epsilon, Initial residual = 0, Final residual = 0, No Iterations 0
DILUPBiCGStab:  Solving for k, Initial residual = 0.0029634, Final residual = 0.000100829, No Iterations 1
ExecutionTime = 0.43 s  ClockTime = 1 s

Time = 52

DILUPBiCGStab:  Solving for Ux, Initial residual = 0.0448789, Final residual = 0.00135234, No Iterations 1
DILUPBiCGStab:  Solving for Uy, Initial residual = 0.0357655, Final residual = 0.00118874, No Iterations 1
DILUPBiCGStab:  Solving for Uz, Initial residual = 0.00798751, Final residual = 0.000185951, No Iterations 1
DILUPBiCGStab:  Solving for e, Initial residual = 0.0068666, Final residual = 0.000139731, No Iterations 1
DICPCG:  Solving for p_rgh, Initial residual = 0.0822368, Final residual = 0.000821306, No Iterations 97
time step continuity errors : sum local = 107.659, global = -0.417099, cumulative = -109.596
DILUPBiCGStab:  Solving for epsilon, Initial residual = 0, Final residual = 0, No Iterations 0
DILUPBiCGStab:  Solving for k, Initial residual = 0.00292938, Final residual = 9.88576e-05, No Iterations 1
ExecutionTime = 0.43 s  ClockTime = 1 s

Time = 53

DILUPBiCGStab:  Solving for Ux, Initial residual = 0.0476191, Final residual = 0.0013715, No Iterations 1
DILUPBiCGStab:  Solving for Uy, Initial residual = 0.0364577, Final residual = 0.00124451, No Iterations 1
DILUPBiCGStab:  Solving for Uz, Initial residual = 0.00792458, Final residual = 0.0001834, No Iterations 1
DILUPBiCGStab:  Solving for e, Initial residual = 0.00691612, Final residual = 0.000138169, No Iterations 1
DICPCG:  Solving for p_rgh, Initial residual = 0.0795962, Final residual = 0.000645806, No Iterations 97
time step continuity errors : sum local = 83.5476, global = 0.133562, cumulative = -109.462
DILUPBiCGStab:  Solving for epsilon, Initial residual = 0, Final residual = 0, No Iterations 0
DILUPBiCGStab:  Solving for k, Initial residual = 0.00284201, Final residual = 9.38006e-05, No Iterations 1
ExecutionTime = 0.44 s  ClockTime = 1 s

Time = 54

DILUPBiCGStab:  Solving for Ux, Initial residual = 0.0425183, Final residual = 0.00103579, No Iterations 1
DILUPBiCGStab:  Solving for Uy, Initial residual = 0.0352899, Final residual = 0.00119194, No Iterations 1
DILUPBiCGStab:  Solving for Uz, Initial residual = 0.00747841, Final residual = 0.000167043, No Iterations 1
DILUPBiCGStab:  Solving for e, Initial residual = 0.00696104, Final residual = 0.00013409, No Iterations 1
DICPCG:  Solving for p_rgh, Initial residual = 0.0807078, Final residual = 0.000653233, No Iterations 93
time step continuity errors : sum local = 78.4167, global = 0.61868, cumulative = -108.844
DILUPBiCGStab:  Solving for epsilon, Initial residual = 0, Final residual = 0, No Iterations 0
DILUPBiCGStab:  Solving for k, Initial residual = 0.00275559, Final residual = 8.8921e-05, No Iterations 1
ExecutionTime = 0.45 s  ClockTime = 1 s

Time = 55

DILUPBiCGStab:  Solving for Ux, Initial residual = 0.0370203, Final residual = 0.000921377, No Iterations 1
DILUPBiCGStab:  Solving for Uy, Initial residual = 0.0347868, Final residual = 0.00110131, No Iterations 1
DILUPBiCGStab:  Solving for Uz, Initial residual = 0.00710665, Final residual = 0.00015044, No Iterations 1
DILUPBiCGStab:  Solving for e, Initial residual = 0.00700213, Final residual = 0.0001316, No Iterations 1
DICPCG:  Solving for p_rgh, Initial residual = 0.0928735, Final residual = 0.00086277, No Iterations 97
time step continuity errors : sum local = 87.1511, global = -0.352404, cumulative = -109.196
DILUPBiCGStab:  Solving for epsilon, Initial residual = 0, Final residual = 0, No Iterations 0
DILUPBiCGStab:  Solving for k, Initial residual = 0.00268334, Final residual = 8.40994e-05, No Iterations 1
ExecutionTime = 0.45 s  ClockTime = 1 s

Time = 56

DILUPBiCGStab:  Solving for Ux, Initial residual = 0.0389638, Final residual = 0.00122617, No Iterations 1
DILUPBiCGStab:  Solving for Uy, Initial residual = 0.0363206, Final residual = 0.00106489, No Iterations 1
DILUPBiCGStab:  Solving for Uz, Initial residual = 0.00690369, Final residual = 0.000136414, No Iterations 1
DILUPBiCGStab:  Solving for e, Initial residual = 0.0068753, Final residual = 0.000127038, No Iterations 1
DICPCG:  Solving for p_rgh, Initial residual = 0.117241, Final residual = 0.00105977, No Iterations 97
time step continuity errors : sum local = 87.8224, global = -0.955892, cumulative = -110.152
DILUPBiCGStab:  Solving for epsilon, Initial residual = 0, Final residual = 0, No Iterations 0
DILUPBiCGStab:  Solving for k, Initial residual = 0.00267736, Final residual = 8.34901e-05, No Iterations 1
ExecutionTime = 0.46 s  ClockTime = 1 s

Time = 57

DILUPBiCGStab:  Solving for Ux, Initial residual = 0.0354162, Final residual = 0.00111529, No Iterations 1
DILUPBiCGStab:  Solving for Uy, Initial residual = 0.0404463, Final residual = 0.00108428, No Iterations 1
DILUPBiCGStab:  Solving for Uz, Initial residual = 0.00687397, Final residual = 0.000135895, No Iterations 1
DILUPBiCGStab:  Solving for e, Initial residual = 0.00676353, Final residual = 0.000126691, No Iterations 1
DICPCG:  Solving for p_rgh, Initial residual = 0.107406, Final residual = 0.000828151, No Iterations 97
time step continuity errors : sum local = 72.6664, global = 0.297543, cumulative = -109.854
DILUPBiCGStab:  Solving for epsilon, Initial residual = 0, Final residual = 0, No Iterations 0
DILUPBiCGStab:  Solving for k, Initial residual = 0.00268197, Final residual = 8.32876e-05, No Iterations 1
ExecutionTime = 0.46 s  ClockTime = 1 s

Time = 58

DILUPBiCGStab:  Solving for Ux, Initial residual = 0.0299366, Final residual = 0.000781928, No Iterations 1
DILUPBiCGStab:  Solving for Uy, Initial residual = 0.04377, Final residual = 0.0010757, No Iterations 1
DILUPBiCGStab:  Solving for Uz, Initial residual = 0.00689525, Final residual = 0.000139611, No Iterations 1
DILUPBiCGStab:  Solving for e, Initial residual = 0.00672374, Final residual = 0.000127148, No Iterations 1
DICPCG:  Solving for p_rgh, Initial residual = 0.104756, Final residual = 0.00104308, No Iterations 96
time step continuity errors : sum local = 84.2881, global = 0.710515, cumulative = -109.144
DILUPBiCGStab:  Solving for epsilon, Initial residual = 0, Final residual = 0, No Iterations 0
DILUPBiCGStab:  Solving for k, Initial residual = 0.00266695, Final residual = 8.24767e-05, No Iterations 1
ExecutionTime = 0.47 s  ClockTime = 1 s

Time = 59

DILUPBiCGStab:  Solving for Ux, Initial residual = 0.0448572, Final residual = 0.00119199, No Iterations 1
DILUPBiCGStab:  Solving for Uy, Initial residual = 0.0433337, Final residual = 0.00109836, No Iterations 1
DILUPBiCGStab:  Solving for Uz, Initial residual = 0.00701937, Final residual = 0.000145759, No Iterations 1
DILUPBiCGStab:  Solving for e, Initial residual = 0.00675772, Final residual = 0.00012811, No Iterations 1
DICPCG:  Solving for p_rgh, Initial residual = 0.0815734, Final residual = 0.00060739, No Iterations 97
time step continuity errors : sum local = 60.7099, global = -0.386404, cumulative = -109.53
DILUPBiCGStab:  Solving for epsilon, Initial residual = 0, Final residual = 0, No Iterations 0
DILUPBiCGStab:  Solving for k, Initial residual = 0.00263054, Final residual = 8.09107e-05, No Iterations 1
ExecutionTime = 0.48 s  ClockTime = 1 s

Time = 60

DILUPBiCGStab:  Solving for Ux, Initial residual = 0.062488, Final residual = 0.00173427, No Iterations 1
DILUPBiCGStab:  Solving for Uy, Initial residual = 0.0396377, Final residual = 0.00111364, No Iterations 1
DILUPBiCGStab:  Solving for Uz, Initial residual = 0.00696869, Final residual = 0.000147228, No Iterations 1
DILUPBiCGStab:  Solving for e, Initial residual = 0.00681261, Final residual = 0.000127866, No Iterations 1
DICPCG:  Solving for p_rgh, Initial residual = 0.0771275, Final residual = 0.000597492, No Iterations 97
time step continuity errors : sum local = 68.9557, global = -0.467236, cumulative = -109.997
DILUPBiCGStab:  Solving for epsilon, Initial residual = 0, Final residual = 0, No Iterations 0
DILUPBiCGStab:  Solving for k, Initial residual = 0.0025682, Final residual = 7.72194e-05, No Iterations 1
ExecutionTime = 0.48 s  ClockTime = 1 s

Time = 61

DILUPBiCGStab:  Solving for Ux, Initial residual = 0.0558898, Final residual = 0.00153601, No Iterations 1
DILUPBiCGStab:  Solving for Uy, Initial residual = 0.0365471, Final residual = 0.00108826, No Iterations 1
DILUPBiCGStab:  Solving for Uz, Initial residual = 0.00668318, Final residual = 0.000141343, No Iterations 1
DILUPBiCGStab:  Solving for e, Initial residual = 0.00695107, Final residual = 0.000124675, No Iterations 1
DICPCG:  Solving for p_rgh, Initial residual = 0.0771193, Final residual = 0.000707232, No Iterations 96
time step continuity errors : sum local = 82.3948, global = -0.638912, cumulative = -110.636
DILUPBiCGStab:  Solving for epsilon, Initial residual = 0, Final residual = 0, No Iterations 0
DILUPBiCGStab:  Solving for k, Initial residual = 0.00245871, Final residual = 7.15886e-05, No Iterations 1
ExecutionTime = 0.49 s  ClockTime = 1 s

Time = 62

DILUPBiCGStab:  Solving for Ux, Initial residual = 0.0327169, Final residual = 0.000718324, No Iterations 1
DILUPBiCGStab:  Solving for Uy, Initial residual = 0.0323527, Final residual = 0.000941364, No Iterations 1
DILUPBiCGStab:  Solving for Uz, Initial residual = 0.00622538, Final residual = 0.000128569, No Iterations 1
DILUPBiCGStab:  Solving for e, Initial residual = 0.00703982, Final residual = 0.00012238, No Iterations 1
DICPCG:  Solving for p_rgh, Initial residual = 0.0802476, Final residual = 0.000460031, No Iterations 98
time step continuity errors : sum local = 44.1253, global = -0.137928, cumulative = -110.774
DILUPBiCGStab:  Solving for epsilon, Initial residual = 0, Final residual = 0, No Iterations 0
DILUPBiCGStab:  Solving for k, Initial residual = 0.00233632, Final residual = 6.41833e-05, No Iterations 1
ExecutionTime = 0.5 s  ClockTime = 1 s

Time = 63

DILUPBiCGStab:  Solving for Ux, Initial residual = 0.0605602, Final residual = 0.00172759, No Iterations 1
DILUPBiCGStab:  Solving for Uy, Initial residual = 0.0311461, Final residual = 0.000797768, No Iterations 1
DILUPBiCGStab:  Solving for Uz, Initial residual = 0.0061006, Final residual = 0.000114558, No Iterations 1
DILUPBiCGStab:  Solving for e, Initial residual = 0.00678173, Final residual = 0.000115493, No Iterations 1
DICPCG:  Solving for p_rgh, Initial residual = 0.0860187, Final residual = 0.000741174, No Iterations 97
time step continuity errors : sum local = 76.3374, global = -0.0262443, cumulative = -110.8
DILUPBiCGStab:  Solving for epsilon, Initial residual = 0, Final residual = 0, No Iterations 0
DILUPBiCGStab:  Solving for k, Initial residual = 0.00228692, Final residual = 6.01466e-05, No Iterations 1
ExecutionTime = 0.5 s  ClockTime = 1 s

Time = 64

DILUPBiCGStab:  Solving for Ux, Initial residual = 0.100131, Final residual = 0.00264349, No Iterations 1
DILUPBiCGStab:  Solving for Uy, Initial residual = 0.0373327, Final residual = 0.000876905, No Iterations 1
DILUPBiCGStab:  Solving for Uz, Initial residual = 0.00609576, Final residual = 0.00010975, No Iterations 1
DILUPBiCGStab:  Solving for e, Initial residual = 0.00635546, Final residual = 0.00011032, No Iterations 1
DICPCG:  Solving for p_rgh, Initial residual = 0.0765703, Final residual = 0.000636956, No Iterations 97
time step continuity errors : sum local = 100.808, global = 0.463686, cumulative = -110.337
DILUPBiCGStab:  Solving for epsilon, Initial residual = 0, Final residual = 0, No Iterations 0
DILUPBiCGStab:  Solving for k, Initial residual = 0.00225932, Final residual = 5.74273e-05, No Iterations 1
ExecutionTime = 0.51 s  ClockTime = 1 s

Time = 65

DILUPBiCGStab:  Solving for Ux, Initial residual = 0.11054, Final residual = 0.00253848, No Iterations 1
DILUPBiCGStab:  Solving for Uy, Initial residual = 0.0484667, Final residual = 0.00109586, No Iterations 1
DILUPBiCGStab:  Solving for Uz, Initial residual = 0.00615215, Final residual = 0.000103333, No Iterations 1
DILUPBiCGStab:  Solving for e, Initial residual = 0.00605649, Final residual = 0.000106481, No Iterations 1
DICPCG:  Solving for p_rgh, Initial residual = 0.075853, Final residual = 0.000569179, No Iterations 97
time step continuity errors : sum local = 101.981, global = 0.379105, cumulative = -109.958
DILUPBiCGStab:  Solving for epsilon, Initial residual = 0, Final residual = 0, No Iterations 0
DILUPBiCGStab:  Solving for k, Initial residual = 0.0022318, Final residual = 5.55938e-05, No Iterations 1
ExecutionTime = 0.52 s  ClockTime = 1 s

Time = 66

DILUPBiCGStab:  Solving for Ux, Initial residual = 0.0680394, Final residual = 0.00146379, No Iterations 1
DILUPBiCGStab:  Solving for Uy, Initial residual = 0.0503513, Final residual = 0.00105877, No Iterations 1
DILUPBiCGStab:  Solving for Uz, Initial residual = 0.00572922, Final residual = 0.000101484, No Iterations 1
DILUPBiCGStab:  Solving for e, Initial residual = 0.0057828, Final residual = 0.000102335, No Iterations 1
DICPCG:  Solving for p_rgh, Initial residual = 0.070221, Final residual = 0.000684858, No Iterations 96
time step continuity errors : sum local = 106.633, global = 0.671217, cumulative = -109.286
DILUPBiCGStab:  Solving for epsilon, Initial residual = 0, Final residual = 0, No Iterations 0
DILUPBiCGStab:  Solving for k, Initial residual = 0.0022012, Final residual = 5.40084e-05, No Iterations 1
ExecutionTime = 0.52 s  ClockTime = 1 s

Time = 67

DILUPBiCGStab:  Solving for Ux, Initial residual = 0.0499528, Final residual = 0.000789167, No Iterations 1
DILUPBiCGStab:  Solving for Uy, Initial residual = 0.0472538, Final residual = 0.00100958, No Iterations 1
DILUPBiCGStab:  Solving for Uz, Initial residual = 0.0061599, Final residual = 0.000108167, No Iterations 1
DILUPBiCGStab:  Solving for e, Initial residual = 0.00581155, Final residual = 0.000100719, No Iterations 1
DICPCG:  Solving for p_rgh, Initial residual = 0.108661, Final residual = 0.000962572, No Iterations 97
time step continuity errors : sum local = 78.5702, global = -0.0285191, cumulative = -109.315
DILUPBiCGStab:  Solving for epsilon, Initial residual = 0, Final residual = 0, No Iterations 0
DILUPBiCGStab:  Solving for k, Initial residual = 0.00215085, Final residual = 5.21392e-05, No Iterations 1
ExecutionTime = 0.53 s  ClockTime = 1 s

Time = 68

DILUPBiCGStab:  Solving for Ux, Initial residual = 0.0748541, Final residual = 0.00154006, No Iterations 1
DILUPBiCGStab:  Solving for Uy, Initial residual = 0.0441699, Final residual = 0.000895944, No Iterations 1
DILUPBiCGStab:  Solving for Uz, Initial residual = 0.00589723, Final residual = 0.00010361, No Iterations 1
DILUPBiCGStab:  Solving for e, Initial residual = 0.00575546, Final residual = 9.8604e-05, No Iterations 1
DICPCG:  Solving for p_rgh, Initial residual = 0.102623, Final residual = 0.000975906, No Iterations 97
time step continuity errors : sum local = 99.5102, global = 0.506964, cumulative = -108.808
DILUPBiCGStab:  Solving for epsilon, Initial residual = 0, Final residual = 0, No Iterations 0
DILUPBiCGStab:  Solving for k, Initial residual = 0.00211591, Final residual = 5.06869e-05, No Iterations 1
ExecutionTime = 0.53 s  ClockTime = 1 s

Time = 69

DILUPBiCGStab:  Solving for Ux, Initial residual = 0.0867886, Final residual = 0.001559, No Iterations 1
DILUPBiCGStab:  Solving for Uy, Initial residual = 0.0446807, Final residual = 0.000870877, No Iterations 1
DILUPBiCGStab:  Solving for Uz, Initial residual = 0.00570935, Final residual = 0.000101306, No Iterations 1
DILUPBiCGStab:  Solving for e, Initial residual = 0.00587755, Final residual = 9.88047e-05, No Iterations 1
DICPCG:  Solving for p_rgh, Initial residual = 0.0832659, Final residual = 0.000709739, No Iterations 97
time step continuity errors : sum local = 89.3504, global = -0.506233, cumulative = -109.314
DILUPBiCGStab:  Solving for epsilon, Initial residual = 0, Final residual = 0, No Iterations 0
DILUPBiCGStab:  Solving for k, Initial residual = 0.00209168, Final residual = 4.97316e-05, No Iterations 1
ExecutionTime = 0.54 s  ClockTime = 1 s

Time = 70

DILUPBiCGStab:  Solving for Ux, Initial residual = 0.0609141, Final residual = 0.00092615, No Iterations 1
DILUPBiCGStab:  Solving for Uy, Initial residual = 0.0441369, Final residual = 0.000858219, No Iterations 1
DILUPBiCGStab:  Solving for Uz, Initial residual = 0.00537369, Final residual = 9.7485e-05, No Iterations 1
DILUPBiCGStab:  Solving for e, Initial residual = 0.00613381, Final residual = 0.000101065, No Iterations 1
DICPCG:  Solving for p_rgh, Initial residual = 0.0654076, Final residual = 0.000613373, No Iterations 97
time step continuity errors : sum local = 76.4056, global = -0.586201, cumulative = -109.9
DILUPBiCGStab:  Solving for epsilon, Initial residual = 0, Final residual = 0, No Iterations 0
DILUPBiCGStab:  Solving for k, Initial residual = 0.00207699, Final residual = 4.92526e-05, No Iterations 1
ExecutionTime = 0.55 s  ClockTime = 1 s

Time = 71

DILUPBiCGStab:  Solving for Ux, Initial residual = 0.0391517, Final residual = 0.000591129, No Iterations 1
DILUPBiCGStab:  Solving for Uy, Initial residual = 0.0391337, Final residual = 0.000773024, No Iterations 1
DILUPBiCGStab:  Solving for Uz, Initial residual = 0.00518296, Final residual = 9.5353e-05, No Iterations 1
DILUPBiCGStab:  Solving for e, Initial residual = 0.00618858, Final residual = 0.000102481, No Iterations 1
DICPCG:  Solving for p_rgh, Initial residual = 0.0573272, Final residual = 0.000320272, No Iterations 97
time step continuity errors : sum local = 32.5587, global = -0.289499, cumulative = -110.19
DILUPBiCGStab:  Solving for epsilon, Initial residual = 0, Final residual = 0, No Iterations 0
DILUPBiCGStab:  Solving for k, Initial residual = 0.00206736, Final residual = 4.90771e-05, No Iterations 1
ExecutionTime = 0.55 s  ClockTime = 1 s

Time = 72

DILUPBiCGStab:  Solving for Ux, Initial residual = 0.0415698, Final residual = 0.000887431, No Iterations 1
DILUPBiCGStab:  Solving for Uy, Initial residual = 0.0332758, Final residual = 0.000706193, No Iterations 1
DILUPBiCGStab:  Solving for Uz, Initial residual = 0.00517639, Final residual = 9.50703e-05, No Iterations 1
DILUPBiCGStab:  Solving for e, Initial residual = 0.00602945, Final residual = 0.000102597, No Iterations 1
DICPCG:  Solving for p_rgh, Initial residual = 0.0862098, Final residual = 0.000543148, No Iterations 97
time step continuity errors : sum local = 39.069, global = -0.205964, cumulative = -110.396
DILUPBiCGStab:  Solving for epsilon, Initial residual = 0, Final residual = 0, No Iterations 0
DILUPBiCGStab:  Solving for k, Initial residual = 0.00205943, Final residual = 4.89903e-05, No Iterations 1
ExecutionTime = 0.56 s  ClockTime = 1 s

Time = 73

DILUPBiCGStab:  Solving for Ux, Initial residual = 0.0425343, Final residual = 0.000817832, No Iterations 1
DILUPBiCGStab:  Solving for Uy, Initial residual = 0.0297886, Final residual = 0.000699633, No Iterations 1
DILUPBiCGStab:  Solving for Uz, Initial residual = 0.00511359, Final residual = 9.48674e-05, No Iterations 1
DILUPBiCGStab:  Solving for e, Initial residual = 0.00582512, Final residual = 0.000102245, No Iterations 1
DICPCG:  Solving for p_rgh, Initial residual = 0.0754332, Final residual = 0.000644009, No Iterations 97
time step continuity errors : sum local = 53.9977, global = -0.242778, cumulative = -110.639
DILUPBiCGStab:  Solving for epsilon, Initial residual = 0, Final residual = 0, No Iterations 0
DILUPBiCGStab:  Solving for k, Initial residual = 0.00204953, Final residual = 4.89468e-05, No Iterations 1
ExecutionTime = 0.57 s  ClockTime = 1 s

Time = 74

DILUPBiCGStab:  Solving for Ux, Initial residual = 0.034124, Final residual = 0.000704129, No Iterations 1
DILUPBiCGStab:  Solving for Uy, Initial residual = 0.0285893, Final residual = 0.00072588, No Iterations 1
DILUPBiCGStab:  Solving for Uz, Initial residual = 0.00506733, Final residual = 9.56409e-05, No Iterations 1
DILUPBiCGStab:  Solving for e, Initial residual = 0.00570793, Final residual = 0.00010219, No Iterations 1
DICPCG:  Solving for p_rgh, Initial residual = 0.0663578, Final residual = 0.000580789, No Iterations 97
time step continuity errors : sum local = 44.8098, global = -0.483949, cumulative = -111.123
DILUPBiCGStab:  Solving for epsilon, Initial residual = 0, Final residual = 0, No Iterations 0
DILUPBiCGStab:  Solving for k, Initial residual = 0.00203683, Final residual = 4.87803e-05, No Iterations 1
ExecutionTime = 0.57 s  ClockTime = 1 s

Time = 75

DILUPBiCGStab:  Solving for Ux, Initial residual = 0.029899, Final residual = 0.000841474, No Iterations 1
DILUPBiCGStab:  Solving for Uy, Initial residual = 0.0278653, Final residual = 0.000738927, No Iterations 1
DILUPBiCGStab:  Solving for Uz, Initial residual = 0.00510043, Final residual = 9.73225e-05, No Iterations 1
DILUPBiCGStab:  Solving for e, Initial residual = 0.00567444, Final residual = 0.000102498, No Iterations 1
DICPCG:  Solving for p_rgh, Initial residual = 0.0579187, Final residual = 0.000358023, No Iterations 97
time step continuity errors : sum local = 25.8223, global = -0.211628, cumulative = -111.334
DILUPBiCGStab:  Solving for epsilon, Initial residual = 0, Final residual = 0, No Iterations 0
DILUPBiCGStab:  Solving for k, Initial residual = 0.00201589, Final residual = 4.80146e-05, No Iterations 1
ExecutionTime = 0.58 s  ClockTime = 1 s

Time = 76

DILUPBiCGStab:  Solving for Ux, Initial residual = 0.0397103, Final residual = 0.000909257, No Iterations 1
DILUPBiCGStab:  Solving for Uy, Initial residual = 0.0279937, Final residual = 0.000718728, No Iterations 1
DILUPBiCGStab:  Solving for Uz, Initial residual = 0.00512794, Final residual = 9.7393e-05, No Iterations 1
DILUPBiCGStab:  Solving for e, Initial residual = 0.0056916, Final residual = 0.000103171, No Iterations 1
DICPCG:  Solving for p_rgh, Initial residual = 0.0511998, Final residual = 0.000472157, No Iterations 97
time step continuity errors : sum local = 41.0929, global = 0.106651, cumulative = -111.228
DILUPBiCGStab:  Solving for epsilon, Initial residual = 0, Final residual = 0, No Iterations 0
DILUPBiCGStab:  Solving for k, Initial residual = 0.00199252, Final residual = 4.68362e-05, No Iterations 1
ExecutionTime = 0.59 s  ClockTime = 1 s

Time = 77

DILUPBiCGStab:  Solving for Ux, Initial residual = 0.0407408, Final residual = 0.000688944, No Iterations 1
DILUPBiCGStab:  Solving for Uy, Initial residual = 0.0281429, Final residual = 0.00062911, No Iterations 1
DILUPBiCGStab:  Solving for Uz, Initial residual = 0.0050078, Final residual = 9.37253e-05, No Iterations 1
DILUPBiCGStab:  Solving for e, Initial residual = 0.0057726, Final residual = 0.000103651, No Iterations 1
DICPCG:  Solving for p_rgh, Initial residual = 0.050837, Final residual = 0.000341981, No Iterations 98
time step continuity errors : sum local = 31.958, global = 0.142544, cumulative = -111.085
DILUPBiCGStab:  Solving for epsilon, Initial residual = 0, Final residual = 0, No Iterations 0
DILUPBiCGStab:  Solving for k, Initial residual = 0.0019682, Final residual = 4.53236e-05, No Iterations 1
ExecutionTime = 0.59 s  ClockTime = 1 s

Time = 78

DILUPBiCGStab:  Solving for Ux, Initial residual = 0.0293532, Final residual = 0.000585194, No Iterations 1
DILUPBiCGStab:  Solving for Uy, Initial residual = 0.0258072, Final residual = 0.000510218, No Iterations 1
DILUPBiCGStab:  Solving for Uz, Initial residual = 0.00476265, Final residual = 8.71305e-05, No Iterations 1
DILUPBiCGStab:  Solving for e, Initial residual = 0.00584934, Final residual = 0.00010402, No Iterations 1
DICPCG:  Solving for p_rgh, Initial residual = 0.0507437, Final residual = 0.000437293, No Iterations 97
time step continuity errors : sum local = 35.9228, global = -0.0476531, cumulative = -111.133
DILUPBiCGStab:  Solving for epsilon, Initial residual = 0, Final residual = 0, No Iterations 0
DILUPBiCGStab:  Solving for k, Initial residual = 0.0019556, Final residual = 4.44364e-05, No Iterations 1
ExecutionTime = 0.6 s  ClockTime = 1 s

Time = 79

DILUPBiCGStab:  Solving for Ux, Initial residual = 0.0290617, Final residual = 0.00082838, No Iterations 1
DILUPBiCGStab:  Solving for Uy, Initial residual = 0.0239892, Final residual = 0.000510838, No Iterations 1
DILUPBiCGStab:  Solving for Uz, Initial residual = 0.00467245, Final residual = 8.44438e-05, No Iterations 1
DILUPBiCGStab:  Solving for e, Initial residual = 0.00580792, Final residual = 0.000103925, No Iterations 1
DICPCG:  Solving for p_rgh, Initial residual = 0.0594254, Final residual = 0.00053225, No Iterations 97
time step continuity errors : sum local = 37.1239, global = -0.139781, cumulative = -111.272
DILUPBiCGStab:  Solving for epsilon, Initial residual = 0, Final residual = 0, No Iterations 0
DILUPBiCGStab:  Solving for k, Initial residual = 0.00195277, Final residual = 4.40122e-05, No Iterations 1
ExecutionTime = 0.6 s  ClockTime = 1 s

Time = 80

DILUPBiCGStab:  Solving for Ux, Initial residual = 0.0260193, Final residual = 0.000661471, No Iterations 1
DILUPBiCGStab:  Solving for Uy, Initial residual = 0.0231657, Final residual = 0.00053385, No Iterations 1
DILUPBiCGStab:  Solving for Uz, Initial residual = 0.00464421, Final residual = 8.49359e-05, No Iterations 1
DILUPBiCGStab:  Solving for e, Initial residual = 0.0057331, Final residual = 0.000104062, No Iterations 1
DICPCG:  Solving for p_rgh, Initial residual = 0.0526795, Final residual = 0.000486592, No Iterations 97
time step continuity errors : sum local = 37.6786, global = -0.35103, cumulative = -111.624
DILUPBiCGStab:  Solving for epsilon, Initial residual = 0, Final residual = 0, No Iterations 0
DILUPBiCGStab:  Solving for k, Initial residual = 0.00195446, Final residual = 4.3928e-05, No Iterations 1
ExecutionTime = 0.61 s  ClockTime = 1 s

Time = 81

DILUPBiCGStab:  Solving for Ux, Initial residual = 0.0202497, Final residual = 0.000390558, No Iterations 1
DILUPBiCGStab:  Solving for Uy, Initial residual = 0.0224384, Final residual = 0.000531504, No Iterations 1
DILUPBiCGStab:  Solving for Uz, Initial residual = 0.00467019, Final residual = 8.65516e-05, No Iterations 1
DILUPBiCGStab:  Solving for e, Initial residual = 0.00570052, Final residual = 0.000104922, No Iterations 1
DICPCG:  Solving for p_rgh, Initial residual = 0.0490622, Final residual = 0.000490075, No Iterations 95
time step continuity errors : sum local = 34.3087, global = 0.110219, cumulative = -111.513
DILUPBiCGStab:  Solving for epsilon, Initial residual = 0, Final residual = 0, No Iterations 0
DILUPBiCGStab:  Solving for k, Initial residual = 0.00195652, Final residual = 4.39528e-05, No Iterations 1
ExecutionTime = 0.62 s  ClockTime = 1 s

Time = 82

DILUPBiCGStab:  Solving for Ux, Initial residual = 0.0272684, Final residual = 0.000642687, No Iterations 1
DILUPBiCGStab:  Solving for Uy, Initial residual = 0.0224764, Final residual = 0.000551495, No Iterations 1
DILUPBiCGStab:  Solving for Uz, Initial residual = 0.0047807, Final residual = 8.83727e-05, No Iterations 1
DILUPBiCGStab:  Solving for e, Initial residual = 0.00571616, Final residual = 0.000106049, No Iterations 1
DICPCG:  Solving for p_rgh, Initial residual = 0.043039, Final residual = 0.000363717, No Iterations 98
time step continuity errors : sum local = 27.3466, global = 0.192897, cumulative = -111.32
DILUPBiCGStab:  Solving for epsilon, Initial residual = 0, Final residual = 0, No Iterations 0
DILUPBiCGStab:  Solving for k, Initial residual = 0.00195215, Final residual = 4.3857e-05, No Iterations 1
ExecutionTime = 0.63 s  ClockTime = 1 s

Time = 83

DILUPBiCGStab:  Solving for Ux, Initial residual = 0.0305536, Final residual = 0.000728325, No Iterations 1
DILUPBiCGStab:  Solving for Uy, Initial residual = 0.0228223, Final residual = 0.000526362, No Iterations 1
DILUPBiCGStab:  Solving for Uz, Initial residual = 0.00467048, Final residual = 8.68273e-05, No Iterations 1
DILUPBiCGStab:  Solving for e, Initial residual = 0.00578001, Final residual = 0.00010757, No Iterations 1
DICPCG:  Solving for p_rgh, Initial residual = 0.0407139, Final residual = 0.000351235, No Iterations 98
time step continuity errors : sum local = 28.2867, global = -0.00724869, cumulative = -111.328
DILUPBiCGStab:  Solving for epsilon, Initial residual = 0, Final residual = 0, No Iterations 0
DILUPBiCGStab:  Solving for k, Initial residual = 0.00194521, Final residual = 4.35553e-05, No Iterations 1
ExecutionTime = 0.63 s  ClockTime = 1 s

Time = 84

DILUPBiCGStab:  Solving for Ux, Initial residual = 0.023092, Final residual = 0.000576659, No Iterations 1
DILUPBiCGStab:  Solving for Uy, Initial residual = 0.0230018, Final residual = 0.000556301, No Iterations 1
DILUPBiCGStab:  Solving for Uz, Initial residual = 0.00455523, Final residual = 8.49813e-05, No Iterations 1
DILUPBiCGStab:  Solving for e, Initial residual = 0.00581962, Final residual = 0.000107507, No Iterations 1
DICPCG:  Solving for p_rgh, Initial residual = 0.0385251, Final residual = 0.000313072, No Iterations 97
time step continuity errors : sum local = 23.8864, global = 0.244333, cumulative = -111.083
DILUPBiCGStab:  Solving for epsilon, Initial residual = 0, Final residual = 0, No Iterations 0
DILUPBiCGStab:  Solving for k, Initial residual = 0.00193788, Final residual = 4.30665e-05, No Iterations 1
ExecutionTime = 0.64 s  ClockTime = 1 s

Time = 85

DILUPBiCGStab:  Solving for Ux, Initial residual = 0.02048, Final residual = 0.000508205, No Iterations 1
DILUPBiCGStab:  Solving for Uy, Initial residual = 0.0218125, Final residual = 0.000536358, No Iterations 1
DILUPBiCGStab:  Solving for Uz, Initial residual = 0.00447504, Final residual = 8.23998e-05, No Iterations 1
DILUPBiCGStab:  Solving for e, Initial residual = 0.00580224, Final residual = 0.000106716, No Iterations 1
DICPCG:  Solving for p_rgh, Initial residual = 0.0416752, Final residual = 0.000320466, No Iterations 96
time step continuity errors : sum local = 21.8239, global = 0.0944512, cumulative = -110.989
DILUPBiCGStab:  Solving for epsilon, Initial residual = 0, Final residual = 0, No Iterations 0
DILUPBiCGStab:  Solving for k, Initial residual = 0.00192396, Final residual = 4.22573e-05, No Iterations 1
ExecutionTime = 0.64 s  ClockTime = 1 s

Time = 86

DILUPBiCGStab:  Solving for Ux, Initial residual = 0.0238815, Final residual = 0.000535239, No Iterations 1
DILUPBiCGStab:  Solving for Uy, Initial residual = 0.0212437, Final residual = 0.000510223, No Iterations 1
DILUPBiCGStab:  Solving for Uz, Initial residual = 0.00442156, Final residual = 7.98583e-05, No Iterations 1
DILUPBiCGStab:  Solving for e, Initial residual = 0.00573379, Final residual = 0.000104702, No Iterations 1
DICPCG:  Solving for p_rgh, Initial residual = 0.0428455, Final residual = 0.000405404, No Iterations 97
time step continuity errors : sum local = 29.3108, global = 0.0639069, cumulative = -110.925
DILUPBiCGStab:  Solving for epsilon, Initial residual = 0, Final residual = 0, No Iterations 0
DILUPBiCGStab:  Solving for k, Initial residual = 0.00190675, Final residual = 4.11244e-05, No Iterations 1
ExecutionTime = 0.65 s  ClockTime = 1 s

Time = 87

DILUPBiCGStab:  Solving for Ux, Initial residual = 0.0286502, Final residual = 0.000603251, No Iterations 1
DILUPBiCGStab:  Solving for Uy, Initial residual = 0.0223439, Final residual = 0.000526717, No Iterations 1
DILUPBiCGStab:  Solving for Uz, Initial residual = 0.00437854, Final residual = 7.7342e-05, No Iterations 1
DILUPBiCGStab:  Solving for e, Initial residual = 0.00562579, Final residual = 0.000103073, No Iterations 1
DICPCG:  Solving for p_rgh, Initial residual = 0.040077, Final residual = 0.000253294, No Iterations 98
time step continuity errors : sum local = 20.9826, global = 0.00993679, cumulative = -110.915
DILUPBiCGStab:  Solving for epsilon, Initial residual = 0, Final residual = 0, No Iterations 0
DILUPBiCGStab:  Solving for k, Initial residual = 0.00190723, Final residual = 4.06318e-05, No Iterations 1
ExecutionTime = 0.66 s  ClockTime = 1 s

Time = 88

DILUPBiCGStab:  Solving for Ux, Initial residual = 0.0254454, Final residual = 0.000542417, No Iterations 1
DILUPBiCGStab:  Solving for Uy, Initial residual = 0.0228377, Final residual = 0.000535623, No Iterations 1
DILUPBiCGStab:  Solving for Uz, Initial residual = 0.0043536, Final residual = 7.58949e-05, No Iterations 1
DILUPBiCGStab:  Solving for e, Initial residual = 0.0055721, Final residual = 0.000101404, No Iterations 1
DICPCG:  Solving for p_rgh, Initial residual = 0.0378935, Final residual = 0.000310037, No Iterations 96
time step continuity errors : sum local = 25.4308, global = 0.163814, cumulative = -110.751
DILUPBiCGStab:  Solving for epsilon, Initial residual = 0, Final residual = 0, No Iterations 0
DILUPBiCGStab:  Solving for k, Initial residual = 0.00191119, Final residual = 4.04444e-05, No Iterations 1
ExecutionTime = 0.66 s  ClockTime = 1 s

Time = 89

DILUPBiCGStab:  Solving for Ux, Initial residual = 0.0181868, Final residual = 0.000391176, No Iterations 1
[...]
time step continuity errors : sum local = 0.610269, global = 0.00271098, cumulative = -113.993
DILUPBiCGStab:  Solving for epsilon, Initial residual = 0, Final residual = 0, No Iterations 0
DILUPBiCGStab:  Solving for k, Initial residual = 0.00036049, Final residual = 3.22661e-07, No Iterations 1
ExecutionTime = 6.27 s  ClockTime = 7 s

Time = 979

DILUPBiCGStab:  Solving for Ux, Initial residual = 0.00253341, Final residual = 8.61434e-06, No Iterations 1
DILUPBiCGStab:  Solving for Uy, Initial residual = 0.00352204, Final residual = 1.54394e-05, No Iterations 1
DILUPBiCGStab:  Solving for Uz, Initial residual = 0.000843062, Final residual = 4.76407e-06, No Iterations 1
DILUPBiCGStab:  Solving for e, Initial residual = 0.00132562, Final residual = 2.66752e-06, No Iterations 1
DICPCG:  Solving for p_rgh, Initial residual = 0.00214644, Final residual = 1.86977e-05, No Iterations 68
time step continuity errors : sum local = 0.590532, global = -0.0468667, cumulative = -114.04
DILUPBiCGStab:  Solving for epsilon, Initial residual = 0, Final residual = 0, No Iterations 0
DILUPBiCGStab:  Solving for k, Initial residual = 0.000359737, Final residual = 3.20999e-07, No Iterations 1
ExecutionTime = 6.28 s  ClockTime = 7 s

Time = 980

DILUPBiCGStab:  Solving for Ux, Initial residual = 0.00253468, Final residual = 8.74221e-06, No Iterations 1
DILUPBiCGStab:  Solving for Uy, Initial residual = 0.00353863, Final residual = 1.53544e-05, No Iterations 1
DILUPBiCGStab:  Solving for Uz, Initial residual = 0.000841962, Final residual = 4.75672e-06, No Iterations 1
DILUPBiCGStab:  Solving for e, Initial residual = 0.00132592, Final residual = 2.64293e-06, No Iterations 1
DICPCG:  Solving for p_rgh, Initial residual = 0.00214113, Final residual = 2.10558e-05, No Iterations 72
time step continuity errors : sum local = 0.665, global = -0.0663012, cumulative = -114.106
DILUPBiCGStab:  Solving for epsilon, Initial residual = 0, Final residual = 0, No Iterations 0
DILUPBiCGStab:  Solving for k, Initial residual = 0.00035895, Final residual = 3.21341e-07, No Iterations 1
ExecutionTime = 6.28 s  ClockTime = 7 s

Time = 981

DILUPBiCGStab:  Solving for Ux, Initial residual = 0.00253746, Final residual = 8.92035e-06, No Iterations 1
DILUPBiCGStab:  Solving for Uy, Initial residual = 0.00354613, Final residual = 1.52712e-05, No Iterations 1
DILUPBiCGStab:  Solving for Uz, Initial residual = 0.000840825, Final residual = 4.74942e-06, No Iterations 1
DILUPBiCGStab:  Solving for e, Initial residual = 0.00132618, Final residual = 2.61867e-06, No Iterations 1
DICPCG:  Solving for p_rgh, Initial residual = 0.00213491, Final residual = 1.58933e-05, No Iterations 96
time step continuity errors : sum local = 0.501952, global = -0.00131088, cumulative = -114.107
DILUPBiCGStab:  Solving for epsilon, Initial residual = 0, Final residual = 0, No Iterations 0
DILUPBiCGStab:  Solving for k, Initial residual = 0.000357995, Final residual = 3.18325e-07, No Iterations 1
ExecutionTime = 6.29 s  ClockTime = 7 s

Time = 982

DILUPBiCGStab:  Solving for Ux, Initial residual = 0.00252111, Final residual = 8.56192e-06, No Iterations 1
DILUPBiCGStab:  Solving for Uy, Initial residual = 0.00354278, Final residual = 1.52039e-05, No Iterations 1
DILUPBiCGStab:  Solving for Uz, Initial residual = 0.000839738, Final residual = 4.7424e-06, No Iterations 1
DILUPBiCGStab:  Solving for e, Initial residual = 0.00132645, Final residual = 2.59505e-06, No Iterations 1
DICPCG:  Solving for p_rgh, Initial residual = 0.00213139, Final residual = 1.56989e-05, No Iterations 96
time step continuity errors : sum local = 0.495837, global = -0.000736441, cumulative = -114.108
DILUPBiCGStab:  Solving for epsilon, Initial residual = 0, Final residual = 0, No Iterations 0
DILUPBiCGStab:  Solving for k, Initial residual = 0.000356944, Final residual = 3.15835e-07, No Iterations 1
ExecutionTime = 6.29 s  ClockTime = 7 s

Time = 983

DILUPBiCGStab:  Solving for Ux, Initial residual = 0.00250792, Final residual = 8.26698e-06, No Iterations 1
DILUPBiCGStab:  Solving for Uy, Initial residual = 0.00352963, Final residual = 1.50935e-05, No Iterations 1
DILUPBiCGStab:  Solving for Uz, Initial residual = 0.000838734, Final residual = 4.73529e-06, No Iterations 1
DILUPBiCGStab:  Solving for e, Initial residual = 0.00132675, Final residual = 2.57087e-06, No Iterations 1
DICPCG:  Solving for p_rgh, Initial residual = 0.00212724, Final residual = 1.9038e-05, No Iterations 69
time step continuity errors : sum local = 0.60134, global = -0.0644063, cumulative = -114.172
DILUPBiCGStab:  Solving for epsilon, Initial residual = 0, Final residual = 0, No Iterations 0
DILUPBiCGStab:  Solving for k, Initial residual = 0.000356364, Final residual = 3.16484e-07, No Iterations 1
ExecutionTime = 6.3 s  ClockTime = 7 s

Time = 984

DILUPBiCGStab:  Solving for Ux, Initial residual = 0.00251072, Final residual = 8.44862e-06, No Iterations 1
DILUPBiCGStab:  Solving for Uy, Initial residual = 0.00351002, Final residual = 1.4963e-05, No Iterations 1
DILUPBiCGStab:  Solving for Uz, Initial residual = 0.000837621, Final residual = 4.7276e-06, No Iterations 1
DILUPBiCGStab:  Solving for e, Initial residual = 0.00132705, Final residual = 2.54618e-06, No Iterations 1
DICPCG:  Solving for p_rgh, Initial residual = 0.0021231, Final residual = 2.08497e-05, No Iterations 33
time step continuity errors : sum local = 0.658593, global = -0.0716766, cumulative = -114.244
DILUPBiCGStab:  Solving for epsilon, Initial residual = 0, Final residual = 0, No Iterations 0
DILUPBiCGStab:  Solving for k, Initial residual = 0.000355813, Final residual = 3.13325e-07, No Iterations 1
ExecutionTime = 6.3 s  ClockTime = 7 s

Time = 985

DILUPBiCGStab:  Solving for Ux, Initial residual = 0.00250442, Final residual = 8.32942e-06, No Iterations 1
DILUPBiCGStab:  Solving for Uy, Initial residual = 0.00348818, Final residual = 1.48677e-05, No Iterations 1
DILUPBiCGStab:  Solving for Uz, Initial residual = 0.000836455, Final residual = 4.72065e-06, No Iterations 1
DILUPBiCGStab:  Solving for e, Initial residual = 0.00132747, Final residual = 2.52219e-06, No Iterations 1
DICPCG:  Solving for p_rgh, Initial residual = 0.00211808, Final residual = 1.67084e-05, No Iterations 31
time step continuity errors : sum local = 0.527794, global = -0.0439329, cumulative = -114.288
DILUPBiCGStab:  Solving for epsilon, Initial residual = 0, Final residual = 0, No Iterations 0
DILUPBiCGStab:  Solving for k, Initial residual = 0.000355263, Final residual = 3.11138e-07, No Iterations 1
ExecutionTime = 6.31 s  ClockTime = 7 s

Time = 986

DILUPBiCGStab:  Solving for Ux, Initial residual = 0.00249618, Final residual = 8.21302e-06, No Iterations 1
DILUPBiCGStab:  Solving for Uy, Initial residual = 0.00346602, Final residual = 1.4751e-05, No Iterations 1
DILUPBiCGStab:  Solving for Uz, Initial residual = 0.00083528, Final residual = 4.71297e-06, No Iterations 1
DILUPBiCGStab:  Solving for e, Initial residual = 0.00132791, Final residual = 2.49838e-06, No Iterations 1
DICPCG:  Solving for p_rgh, Initial residual = 0.00211331, Final residual = 1.7648e-05, No Iterations 31
time step continuity errors : sum local = 0.557499, global = -0.0293871, cumulative = -114.317
DILUPBiCGStab:  Solving for epsilon, Initial residual = 0, Final residual = 0, No Iterations 0
DILUPBiCGStab:  Solving for k, Initial residual = 0.000354643, Final residual = 3.08872e-07, No Iterations 1
ExecutionTime = 6.31 s  ClockTime = 7 s

Time = 987

DILUPBiCGStab:  Solving for Ux, Initial residual = 0.00248799, Final residual = 8.10872e-06, No Iterations 1
DILUPBiCGStab:  Solving for Uy, Initial residual = 0.00344689, Final residual = 1.46358e-05, No Iterations 1
DILUPBiCGStab:  Solving for Uz, Initial residual = 0.000834085, Final residual = 4.70547e-06, No Iterations 1
DILUPBiCGStab:  Solving for e, Initial residual = 0.00132822, Final residual = 2.47447e-06, No Iterations 1
DICPCG:  Solving for p_rgh, Initial residual = 0.00210919, Final residual = 1.8828e-05, No Iterations 32
time step continuity errors : sum local = 0.594809, global = -0.0144145, cumulative = -114.332
DILUPBiCGStab:  Solving for epsilon, Initial residual = 0, Final residual = 0, No Iterations 0
DILUPBiCGStab:  Solving for k, Initial residual = 0.000354152, Final residual = 3.07735e-07, No Iterations 1
ExecutionTime = 6.31 s  ClockTime = 7 s

Time = 988

DILUPBiCGStab:  Solving for Ux, Initial residual = 0.00248024, Final residual = 8.02403e-06, No Iterations 1
DILUPBiCGStab:  Solving for Uy, Initial residual = 0.00343133, Final residual = 1.45268e-05, No Iterations 1
DILUPBiCGStab:  Solving for Uz, Initial residual = 0.000833101, Final residual = 4.69808e-06, No Iterations 1
DILUPBiCGStab:  Solving for e, Initial residual = 0.00132876, Final residual = 2.45052e-06, No Iterations 1
DICPCG:  Solving for p_rgh, Initial residual = 0.00210542, Final residual = 2.05774e-05, No Iterations 56
time step continuity errors : sum local = 0.650118, global = 0.025039, cumulative = -114.307
DILUPBiCGStab:  Solving for epsilon, Initial residual = 0, Final residual = 0, No Iterations 0
DILUPBiCGStab:  Solving for k, Initial residual = 0.000353543, Final residual = 3.06022e-07, No Iterations 1
ExecutionTime = 6.32 s  ClockTime = 7 s

Time = 989

DILUPBiCGStab:  Solving for Ux, Initial residual = 0.00247574, Final residual = 8.08998e-06, No Iterations 1
DILUPBiCGStab:  Solving for Uy, Initial residual = 0.00341828, Final residual = 1.43963e-05, No Iterations 1
DILUPBiCGStab:  Solving for Uz, Initial residual = 0.000832369, Final residual = 4.6904e-06, No Iterations 1
DILUPBiCGStab:  Solving for e, Initial residual = 0.00132928, Final residual = 2.42659e-06, No Iterations 1
DICPCG:  Solving for p_rgh, Initial residual = 0.0021012, Final residual = 1.79341e-05, No Iterations 59
time step continuity errors : sum local = 0.566652, global = 0.0543516, cumulative = -114.252
DILUPBiCGStab:  Solving for epsilon, Initial residual = 0, Final residual = 0, No Iterations 0
DILUPBiCGStab:  Solving for k, Initial residual = 0.000352845, Final residual = 3.04558e-07, No Iterations 1
ExecutionTime = 6.32 s  ClockTime = 7 s

Time = 990

DILUPBiCGStab:  Solving for Ux, Initial residual = 0.00247168, Final residual = 8.16124e-06, No Iterations 1
DILUPBiCGStab:  Solving for Uy, Initial residual = 0.00341002, Final residual = 1.42852e-05, No Iterations 1
DILUPBiCGStab:  Solving for Uz, Initial residual = 0.000831746, Final residual = 4.6832e-06, No Iterations 1
DILUPBiCGStab:  Solving for e, Initial residual = 0.00132968, Final residual = 2.4027e-06, No Iterations 1
DICPCG:  Solving for p_rgh, Initial residual = 0.00209741, Final residual = 1.98803e-05, No Iterations 95
time step continuity errors : sum local = 0.628182, global = 0.00290802, cumulative = -114.249
DILUPBiCGStab:  Solving for epsilon, Initial residual = 0, Final residual = 0, No Iterations 0
DILUPBiCGStab:  Solving for k, Initial residual = 0.000352098, Final residual = 3.03696e-07, No Iterations 1
ExecutionTime = 6.33 s  ClockTime = 7 s

Time = 991

DILUPBiCGStab:  Solving for Ux, Initial residual = 0.00247672, Final residual = 8.38705e-06, No Iterations 1
DILUPBiCGStab:  Solving for Uy, Initial residual = 0.00340448, Final residual = 1.42424e-05, No Iterations 1
DILUPBiCGStab:  Solving for Uz, Initial residual = 0.000831032, Final residual = 4.67618e-06, No Iterations 1
DILUPBiCGStab:  Solving for e, Initial residual = 0.00133007, Final residual = 2.37885e-06, No Iterations 1
DICPCG:  Solving for p_rgh, Initial residual = 0.00209593, Final residual = 1.83077e-05, No Iterations 86
time step continuity errors : sum local = 0.578475, global = 0.0103477, cumulative = -114.239
DILUPBiCGStab:  Solving for epsilon, Initial residual = 0, Final residual = 0, No Iterations 0
DILUPBiCGStab:  Solving for k, Initial residual = 0.000351208, Final residual = 3.01814e-07, No Iterations 1
ExecutionTime = 6.34 s  ClockTime = 7 s

Time = 992

DILUPBiCGStab:  Solving for Ux, Initial residual = 0.00248038, Final residual = 8.49227e-06, No Iterations 1
DILUPBiCGStab:  Solving for Uy, Initial residual = 0.00339855, Final residual = 1.41195e-05, No Iterations 1
DILUPBiCGStab:  Solving for Uz, Initial residual = 0.000830382, Final residual = 4.66895e-06, No Iterations 1
DILUPBiCGStab:  Solving for e, Initial residual = 0.0013305, Final residual = 2.35491e-06, No Iterations 1
DICPCG:  Solving for p_rgh, Initial residual = 0.00209457, Final residual = 1.88872e-05, No Iterations 95
time step continuity errors : sum local = 0.596757, global = 0.00128509, cumulative = -114.238
DILUPBiCGStab:  Solving for epsilon, Initial residual = 0, Final residual = 0, No Iterations 0
DILUPBiCGStab:  Solving for k, Initial residual = 0.000350207, Final residual = 3.00232e-07, No Iterations 1
ExecutionTime = 6.34 s  ClockTime = 7 s

Time = 993

DILUPBiCGStab:  Solving for Ux, Initial residual = 0.00247555, Final residual = 8.41365e-06, No Iterations 1
DILUPBiCGStab:  Solving for Uy, Initial residual = 0.00339485, Final residual = 1.41101e-05, No Iterations 1
DILUPBiCGStab:  Solving for Uz, Initial residual = 0.000829662, Final residual = 4.66233e-06, No Iterations 1
DILUPBiCGStab:  Solving for e, Initial residual = 0.00133093, Final residual = 2.33178e-06, No Iterations 1
DICPCG:  Solving for p_rgh, Initial residual = 0.00209215, Final residual = 2.02523e-05, No Iterations 69
time step continuity errors : sum local = 0.63984, global = 0.0745469, cumulative = -114.163
DILUPBiCGStab:  Solving for epsilon, Initial residual = 0, Final residual = 0, No Iterations 0
DILUPBiCGStab:  Solving for k, Initial residual = 0.000349232, Final residual = 2.98842e-07, No Iterations 1
ExecutionTime = 6.35 s  ClockTime = 7 s

Time = 994

DILUPBiCGStab:  Solving for Ux, Initial residual = 0.00245327, Final residual = 7.91347e-06, No Iterations 1
DILUPBiCGStab:  Solving for Uy, Initial residual = 0.00338776, Final residual = 1.40104e-05, No Iterations 1
DILUPBiCGStab:  Solving for Uz, Initial residual = 0.000828894, Final residual = 4.65563e-06, No Iterations 1
DILUPBiCGStab:  Solving for e, Initial residual = 0.00133145, Final residual = 2.30966e-06, No Iterations 1
DICPCG:  Solving for p_rgh, Initial residual = 0.00208692, Final residual = 1.82822e-05, No Iterations 14
time step continuity errors : sum local = 0.577559, global = 0.0334128, cumulative = -114.13
DILUPBiCGStab:  Solving for epsilon, Initial residual = 0, Final residual = 0, No Iterations 0
DILUPBiCGStab:  Solving for k, Initial residual = 0.00034819, Final residual = 2.96807e-07, No Iterations 1
ExecutionTime = 6.35 s  ClockTime = 7 s

Time = 995

DILUPBiCGStab:  Solving for Ux, Initial residual = 0.0024412, Final residual = 7.73804e-06, No Iterations 1
DILUPBiCGStab:  Solving for Uy, Initial residual = 0.00338446, Final residual = 1.38872e-05, No Iterations 1
DILUPBiCGStab:  Solving for Uz, Initial residual = 0.000828011, Final residual = 4.64867e-06, No Iterations 1
DILUPBiCGStab:  Solving for e, Initial residual = 0.00133173, Final residual = 2.28544e-06, No Iterations 1
DICPCG:  Solving for p_rgh, Initial residual = 0.00208103, Final residual = 1.74235e-05, No Iterations 37
time step continuity errors : sum local = 0.550386, global = 0.0466902, cumulative = -114.083
DILUPBiCGStab:  Solving for epsilon, Initial residual = 0, Final residual = 0, No Iterations 0
DILUPBiCGStab:  Solving for k, Initial residual = 0.000347126, Final residual = 2.95258e-07, No Iterations 1
ExecutionTime = 6.36 s  ClockTime = 7 s

Time = 996

DILUPBiCGStab:  Solving for Ux, Initial residual = 0.00243811, Final residual = 7.67393e-06, No Iterations 1
DILUPBiCGStab:  Solving for Uy, Initial residual = 0.0033831, Final residual = 1.37844e-05, No Iterations 1
DILUPBiCGStab:  Solving for Uz, Initial residual = 0.000827058, Final residual = 4.64198e-06, No Iterations 1
DILUPBiCGStab:  Solving for e, Initial residual = 0.00133195, Final residual = 2.26183e-06, No Iterations 1
DICPCG:  Solving for p_rgh, Initial residual = 0.00207441, Final residual = 1.93607e-05, No Iterations 95
time step continuity errors : sum local = 0.611521, global = 0.0028512, cumulative = -114.08
DILUPBiCGStab:  Solving for epsilon, Initial residual = 0, Final residual = 0, No Iterations 0
DILUPBiCGStab:  Solving for k, Initial residual = 0.000346063, Final residual = 2.94524e-07, No Iterations 1
ExecutionTime = 6.36 s  ClockTime = 7 s

Time = 997

DILUPBiCGStab:  Solving for Ux, Initial residual = 0.00245388, Final residual = 8.09422e-06, No Iterations 1
DILUPBiCGStab:  Solving for Uy, Initial residual = 0.0033802, Final residual = 1.37263e-05, No Iterations 1
DILUPBiCGStab:  Solving for Uz, Initial residual = 0.000825983, Final residual = 4.63595e-06, No Iterations 1
DILUPBiCGStab:  Solving for e, Initial residual = 0.0013321, Final residual = 2.23849e-06, No Iterations 1
DICPCG:  Solving for p_rgh, Initial residual = 0.00207227, Final residual = 1.9539e-05, No Iterations 95
time step continuity errors : sum local = 0.617049, global = 0.00239494, cumulative = -114.078
DILUPBiCGStab:  Solving for epsilon, Initial residual = 0, Final residual = 0, No Iterations 0
DILUPBiCGStab:  Solving for k, Initial residual = 0.000344925, Final residual = 2.9246e-07, No Iterations 1
ExecutionTime = 6.37 s  ClockTime = 7 s

Time = 998

DILUPBiCGStab:  Solving for Ux, Initial residual = 0.00246875, Final residual = 8.42407e-06, No Iterations 1
DILUPBiCGStab:  Solving for Uy, Initial residual = 0.00337994, Final residual = 1.36775e-05, No Iterations 1
DILUPBiCGStab:  Solving for Uz, Initial residual = 0.000824833, Final residual = 4.63012e-06, No Iterations 1
DILUPBiCGStab:  Solving for e, Initial residual = 0.00133215, Final residual = 2.21525e-06, No Iterations 1
DICPCG:  Solving for p_rgh, Initial residual = 0.00207692, Final residual = 1.2981e-05, No Iterations 96
time step continuity errors : sum local = 0.409837, global = 0.00110422, cumulative = -114.077
DILUPBiCGStab:  Solving for epsilon, Initial residual = 0, Final residual = 0, No Iterations 0
DILUPBiCGStab:  Solving for k, Initial residual = 0.000344165, Final residual = 2.91574e-07, No Iterations 1
ExecutionTime = 6.37 s  ClockTime = 7 s

Time = 999

DILUPBiCGStab:  Solving for Ux, Initial residual = 0.00247645, Final residual = 8.49258e-06, No Iterations 1
DILUPBiCGStab:  Solving for Uy, Initial residual = 0.00338821, Final residual = 1.36084e-05, No Iterations 1
DILUPBiCGStab:  Solving for Uz, Initial residual = 0.000823649, Final residual = 4.62447e-06, No Iterations 1
DILUPBiCGStab:  Solving for e, Initial residual = 0.00133215, Final residual = 2.19219e-06, No Iterations 1
DICPCG:  Solving for p_rgh, Initial residual = 0.0020837, Final residual = 1.37855e-05, No Iterations 96
time step continuity errors : sum local = 0.4351, global = 0.00120384, cumulative = -114.076
DILUPBiCGStab:  Solving for epsilon, Initial residual = 0, Final residual = 0, No Iterations 0
DILUPBiCGStab:  Solving for k, Initial residual = 0.000343276, Final residual = 2.89403e-07, No Iterations 1
ExecutionTime = 6.38 s  ClockTime = 7 s

Time = 1000

DILUPBiCGStab:  Solving for Ux, Initial residual = 0.00247688, Final residual = 8.35369e-06, No Iterations 1
DILUPBiCGStab:  Solving for Uy, Initial residual = 0.00340061, Final residual = 1.3589e-05, No Iterations 1
DILUPBiCGStab:  Solving for Uz, Initial residual = 0.000822387, Final residual = 4.61891e-06, No Iterations 1
DILUPBiCGStab:  Solving for e, Initial residual = 0.00133223, Final residual = 2.16952e-06, No Iterations 1
DICPCG:  Solving for p_rgh, Initial residual = 0.00208673, Final residual = 1.30161e-05, No Iterations 96
time step continuity errors : sum local = 0.41068, global = 0.000716051, cumulative = -114.075
DILUPBiCGStab:  Solving for epsilon, Initial residual = 0, Final residual = 0, No Iterations 0
DILUPBiCGStab:  Solving for k, Initial residual = 0.00034237, Final residual = 2.87639e-07, No Iterations 1
ExecutionTime = 6.41 s  ClockTime = 7 s

End

