/*---------------------------------------------------------------------------*\
  =========                 |
  \\      /  F ield         | OpenFOAM: The Open Source CFD Toolbox
   \\    /   O peration     | Website:  https://openfoam.org
    \\  /    A nd           | Version:  8
     \\/     M anipulation  |
\*---------------------------------------------------------------------------*/
Build  : 8-1c9b5879390b
Exec   : buoyantSimpleFoam
Date   : Jan 27 2025
Time   : 14:52:41
Host   : "658dd9edf29b"
PID    : 905
I/O    : uncollated
Case   : /home/openfoam/run/180bentPipe/Re20000/q-1500
nProcs : 1
sigFpe : Enabling floating point exception trapping (FOAM_SIGFPE).
fileModificationChecking : Monitoring run-time modified files using timeStampMaster (fileModificationSkew 10)
allowSystemOperations : Allowing user-supplied system call operations

// * * * * * * * * * * * * * * * * * * * * * * * * * * * * * * * * * * * * * //
Create time

Create mesh for time = 0


SIMPLE: Convergence criteria found
        p_rgh: tolerance 0.01
        U: tolerance 0.0001
        e: tolerance 0.01
        "(k|epsilon|omega)": tolerance 0.001

Reading thermophysical properties

Selecting thermodynamics package 
{
    type            heRhoThermo;
    mixture         pureMixture;
    transport       const;
    thermo          eConst;
    equationOfState Boussinesq;
    specie          specie;
    energy          sensibleInternalEnergy;
}

Reading field U

Reading/calculating face flux field phi

Creating turbulence model

Selecting turbulence model type RAS
Selecting RAS turbulence model kEpsilon
RAS
{
    RASModel        kEpsilon;
    turbulence      on;
    printCoeffs     on;
    Cmu             0.09;
    C1              1.44;
    C2              1.92;
    C3              0;
    sigmak          1;
    sigmaEps        1.3;
}

Creating thermophysical transport model

Selecting thermophysical transport type RAS
Selecting default RAS thermophysical transport model eddyDiffusivity

Reading g

Reading hRef
Calculating field g.h


Reading pRef
Reading field p_rgh

--> FOAM Warning : 
    From function const Foam::HashTable<Foam::List<int>, Foam::word>& Foam::polyBoundaryMesh::groupPatchIDs() const
    in file meshes/polyMesh/polyBoundaryMesh/polyBoundaryMesh.C at line 473
    Removing patchGroup 'wall' which clashes with patch 0 of the same name.
No MRF models present

Radiation model not active: radiationProperties not found
Selecting radiationModel none
No finite volume options present

Starting time loop

Time = 1

DILUPBiCGStab:  Solving for Ux, Initial residual = 1, Final residual = 0.0796371, No Iterations 1
DILUPBiCGStab:  Solving for Uy, Initial residual = 1, Final residual = 0.031205, No Iterations 1
DILUPBiCGStab:  Solving for Uz, Initial residual = 1, Final residual = 0.0675918, No Iterations 1
DILUPBiCGStab:  Solving for e, Initial residual = 1, Final residual = 0.000423728, No Iterations 1
DICPCG:  Solving for p_rgh, Initial residual = 0.999202, Final residual = 0.00706623, No Iterations 198
time step continuity errors : sum local = 569.785, global = -0.698213, cumulative = -0.698213
DILUPBiCGStab:  Solving for epsilon, Initial residual = 0, Final residual = 0, No Iterations 0
DILUPBiCGStab:  Solving for k, Initial residual = 1, Final residual = 0.0560582, No Iterations 1
ExecutionTime = 0.26 s  ClockTime = 1 s

Time = 2

DILUPBiCGStab:  Solving for Ux, Initial residual = 0.0283235, Final residual = 0.000462183, No Iterations 1
DILUPBiCGStab:  Solving for Uy, Initial residual = 0.138945, Final residual = 0.000516714, No Iterations 1
DILUPBiCGStab:  Solving for Uz, Initial residual = 0.609754, Final residual = 0.0114522, No Iterations 1
DILUPBiCGStab:  Solving for e, Initial residual = 0.200971, Final residual = 6.86116e-06, No Iterations 1
DICPCG:  Solving for p_rgh, Initial residual = 0.0544662, Final residual = 0.000466294, No Iterations 182
time step continuity errors : sum local = 880.958, global = -1.62215, cumulative = -2.32037
DILUPBiCGStab:  Solving for epsilon, Initial residual = 0, Final residual = 0, No Iterations 0
DILUPBiCGStab:  Solving for k, Initial residual = 0.152706, Final residual = 1.78321e-05, No Iterations 1
ExecutionTime = 0.32 s  ClockTime = 1 s

Time = 3

DILUPBiCGStab:  Solving for Ux, Initial residual = 0.251036, Final residual = 0.00279375, No Iterations 1
DILUPBiCGStab:  Solving for Uy, Initial residual = 0.248973, Final residual = 0.00518435, No Iterations 1
DILUPBiCGStab:  Solving for Uz, Initial residual = 0.474584, Final residual = 0.00258215, No Iterations 1
DILUPBiCGStab:  Solving for e, Initial residual = 0.172942, Final residual = 0.000676784, No Iterations 1
DICPCG:  Solving for p_rgh, Initial residual = 0.127435, Final residual = 0.00118082, No Iterations 188
time step continuity errors : sum local = 1248.8, global = 2.04583, cumulative = -0.27454
DILUPBiCGStab:  Solving for epsilon, Initial residual = 0, Final residual = 0, No Iterations 0
DILUPBiCGStab:  Solving for k, Initial residual = 0.130135, Final residual = 0.00286715, No Iterations 1
ExecutionTime = 0.37 s  ClockTime = 1 s

Time = 4

DILUPBiCGStab:  Solving for Ux, Initial residual = 0.205954, Final residual = 0.00331648, No Iterations 1
DILUPBiCGStab:  Solving for Uy, Initial residual = 0.225335, Final residual = 0.00478577, No Iterations 1
DILUPBiCGStab:  Solving for Uz, Initial residual = 0.268255, Final residual = 0.00490593, No Iterations 1
DILUPBiCGStab:  Solving for e, Initial residual = 0.269279, Final residual = 0.0022208, No Iterations 1
DICPCG:  Solving for p_rgh, Initial residual = 0.131122, Final residual = 0.00120226, No Iterations 196
time step continuity errors : sum local = 908.628, global = 4.8515, cumulative = 4.57696
DILUPBiCGStab:  Solving for epsilon, Initial residual = 0, Final residual = 0, No Iterations 0
DILUPBiCGStab:  Solving for k, Initial residual = 0.0789625, Final residual = 0.00347566, No Iterations 1
ExecutionTime = 0.43 s  ClockTime = 1 s

Time = 5

DILUPBiCGStab:  Solving for Ux, Initial residual = 0.438638, Final residual = 0.0159729, No Iterations 1
DILUPBiCGStab:  Solving for Uy, Initial residual = 0.395509, Final residual = 0.0142839, No Iterations 1
DILUPBiCGStab:  Solving for Uz, Initial residual = 0.380358, Final residual = 0.00303868, No Iterations 1
DILUPBiCGStab:  Solving for e, Initial residual = 0.156793, Final residual = 0.00203514, No Iterations 1
DICPCG:  Solving for p_rgh, Initial residual = 0.0772913, Final residual = 0.000527959, No Iterations 194
time step continuity errors : sum local = 626.895, global = -1.42499, cumulative = 3.15197
DILUPBiCGStab:  Solving for epsilon, Initial residual = 0, Final residual = 0, No Iterations 0
DILUPBiCGStab:  Solving for k, Initial residual = 0.057464, Final residual = 0.00169124, No Iterations 1
ExecutionTime = 0.49 s  ClockTime = 1 s

Time = 6

DILUPBiCGStab:  Solving for Ux, Initial residual = 0.247234, Final residual = 0.0118238, No Iterations 1
DILUPBiCGStab:  Solving for Uy, Initial residual = 0.220655, Final residual = 0.0144324, No Iterations 1
DILUPBiCGStab:  Solving for Uz, Initial residual = 0.217902, Final residual = 0.00620993, No Iterations 1
DILUPBiCGStab:  Solving for e, Initial residual = 0.122125, Final residual = 0.00166486, No Iterations 1
DICPCG:  Solving for p_rgh, Initial residual = 0.191146, Final residual = 0.00172344, No Iterations 196
time step continuity errors : sum local = 827.124, global = 4.49233, cumulative = 7.6443
DILUPBiCGStab:  Solving for epsilon, Initial residual = 0, Final residual = 0, No Iterations 0
DILUPBiCGStab:  Solving for k, Initial residual = 0.0443582, Final residual = 0.00108915, No Iterations 1
ExecutionTime = 0.56 s  ClockTime = 1 s

Time = 7

DILUPBiCGStab:  Solving for Ux, Initial residual = 0.267455, Final residual = 0.0132676, No Iterations 1
DILUPBiCGStab:  Solving for Uy, Initial residual = 0.261656, Final residual = 0.0143325, No Iterations 1
DILUPBiCGStab:  Solving for Uz, Initial residual = 0.150328, Final residual = 0.00621516, No Iterations 1
DILUPBiCGStab:  Solving for e, Initial residual = 0.147621, Final residual = 0.00178057, No Iterations 1
DICPCG:  Solving for p_rgh, Initial residual = 0.124676, Final residual = 0.00113904, No Iterations 199
time step continuity errors : sum local = 684.828, global = -6.47088, cumulative = 1.17342
DILUPBiCGStab:  Solving for epsilon, Initial residual = 0, Final residual = 0, No Iterations 0
DILUPBiCGStab:  Solving for k, Initial residual = 0.0355665, Final residual = 0.000740498, No Iterations 1
ExecutionTime = 0.63 s  ClockTime = 1 s

Time = 8

DILUPBiCGStab:  Solving for Ux, Initial residual = 0.226182, Final residual = 0.0117114, No Iterations 1
DILUPBiCGStab:  Solving for Uy, Initial residual = 0.219847, Final residual = 0.0112568, No Iterations 1
DILUPBiCGStab:  Solving for Uz, Initial residual = 0.141052, Final residual = 0.00505745, No Iterations 1
DILUPBiCGStab:  Solving for e, Initial residual = 0.0704231, Final residual = 0.000895051, No Iterations 1
DICPCG:  Solving for p_rgh, Initial residual = 0.1113, Final residual = 0.000946647, No Iterations 201
time step continuity errors : sum local = 723.372, global = -1.70194, cumulative = -0.52852
DILUPBiCGStab:  Solving for epsilon, Initial residual = 0, Final residual = 0, No Iterations 0
DILUPBiCGStab:  Solving for k, Initial residual = 0.0295555, Final residual = 0.000535358, No Iterations 1
ExecutionTime = 0.68 s  ClockTime = 1 s

Time = 9

DILUPBiCGStab:  Solving for Ux, Initial residual = 0.0558766, Final residual = 0.0033067, No Iterations 1
DILUPBiCGStab:  Solving for Uy, Initial residual = 0.0717135, Final residual = 0.0063101, No Iterations 1
DILUPBiCGStab:  Solving for Uz, Initial residual = 0.114133, Final residual = 0.00512422, No Iterations 1
DILUPBiCGStab:  Solving for e, Initial residual = 0.0708937, Final residual = 0.000717497, No Iterations 1
DICPCG:  Solving for p_rgh, Initial residual = 0.476991, Final residual = 0.00432177, No Iterations 198
time step continuity errors : sum local = 696.358, global = -0.955332, cumulative = -1.48385
DILUPBiCGStab:  Solving for epsilon, Initial residual = 0, Final residual = 0, No Iterations 0
DILUPBiCGStab:  Solving for k, Initial residual = 0.025093, Final residual = 0.000434063, No Iterations 1
ExecutionTime = 0.74 s  ClockTime = 1 s

Time = 10

DILUPBiCGStab:  Solving for Ux, Initial residual = 0.161346, Final residual = 0.00803689, No Iterations 1
DILUPBiCGStab:  Solving for Uy, Initial residual = 0.156687, Final residual = 0.0129362, No Iterations 1
DILUPBiCGStab:  Solving for Uz, Initial residual = 0.102086, Final residual = 0.00490895, No Iterations 1
DILUPBiCGStab:  Solving for e, Initial residual = 0.0704806, Final residual = 0.000902351, No Iterations 1
DICPCG:  Solving for p_rgh, Initial residual = 0.129881, Final residual = 0.00115918, No Iterations 196
time step continuity errors : sum local = 585.504, global = -6.64651, cumulative = -8.13036
DILUPBiCGStab:  Solving for epsilon, Initial residual = 0, Final residual = 0, No Iterations 0
DILUPBiCGStab:  Solving for k, Initial residual = 0.0216798, Final residual = 0.000351802, No Iterations 1
ExecutionTime = 0.8 s  ClockTime = 1 s

Time = 11

DILUPBiCGStab:  Solving for Ux, Initial residual = 0.179217, Final residual = 0.00977281, No Iterations 1
DILUPBiCGStab:  Solving for Uy, Initial residual = 0.158043, Final residual = 0.012013, No Iterations 1
DILUPBiCGStab:  Solving for Uz, Initial residual = 0.0869098, Final residual = 0.00377583, No Iterations 1
DILUPBiCGStab:  Solving for e, Initial residual = 0.0378545, Final residual = 0.00047793, No Iterations 1
DICPCG:  Solving for p_rgh, Initial residual = 0.14822, Final residual = 0.0012769, No Iterations 197
time step continuity errors : sum local = 555.494, global = 2.25674, cumulative = -5.87363
DILUPBiCGStab:  Solving for epsilon, Initial residual = 0, Final residual = 0, No Iterations 0
DILUPBiCGStab:  Solving for k, Initial residual = 0.0189471, Final residual = 0.000287289, No Iterations 1
ExecutionTime = 0.86 s  ClockTime = 1 s

Time = 12

DILUPBiCGStab:  Solving for Ux, Initial residual = 0.0679008, Final residual = 0.00394285, No Iterations 1
DILUPBiCGStab:  Solving for Uy, Initial residual = 0.0745169, Final residual = 0.00085499, No Iterations 1
DILUPBiCGStab:  Solving for Uz, Initial residual = 0.0770658, Final residual = 0.00375622, No Iterations 1
DILUPBiCGStab:  Solving for e, Initial residual = 0.0466729, Final residual = 0.000487644, No Iterations 1
DICPCG:  Solving for p_rgh, Initial residual = 0.722665, Final residual = 0.00575169, No Iterations 195
time step continuity errors : sum local = 397.378, global = -3.27126, cumulative = -9.14489
DILUPBiCGStab:  Solving for epsilon, Initial residual = 0, Final residual = 0, No Iterations 0
DILUPBiCGStab:  Solving for k, Initial residual = 0.0167266, Final residual = 0.000236765, No Iterations 1
ExecutionTime = 0.92 s  ClockTime = 1 s

Time = 13

DILUPBiCGStab:  Solving for Ux, Initial residual = 0.117466, Final residual = 0.00572562, No Iterations 1
DILUPBiCGStab:  Solving for Uy, Initial residual = 0.121397, Final residual = 0.0111356, No Iterations 1
DILUPBiCGStab:  Solving for Uz, Initial residual = 0.0656043, Final residual = 0.00403829, No Iterations 1
DILUPBiCGStab:  Solving for e, Initial residual = 0.0414739, Final residual = 0.000393742, No Iterations 1
DICPCG:  Solving for p_rgh, Initial residual = 0.119389, Final residual = 0.00100187, No Iterations 194
time step continuity errors : sum local = 351.908, global = -0.229909, cumulative = -9.3748
DILUPBiCGStab:  Solving for epsilon, Initial residual = 0, Final residual = 0, No Iterations 0
DILUPBiCGStab:  Solving for k, Initial residual = 0.0149705, Final residual = 0.000199508, No Iterations 1
ExecutionTime = 0.98 s  ClockTime = 1 s

Time = 14

DILUPBiCGStab:  Solving for Ux, Initial residual = 0.0777884, Final residual = 0.00380163, No Iterations 1
DILUPBiCGStab:  Solving for Uy, Initial residual = 0.0765976, Final residual = 0.00697433, No Iterations 1
DILUPBiCGStab:  Solving for Uz, Initial residual = 0.0591998, Final residual = 0.00344082, No Iterations 1
DILUPBiCGStab:  Solving for e, Initial residual = 0.0262492, Final residual = 0.000179666, No Iterations 1
DICPCG:  Solving for p_rgh, Initial residual = 0.142222, Final residual = 0.00134736, No Iterations 193
time step continuity errors : sum local = 394.852, global = 4.24015, cumulative = -5.13465
DILUPBiCGStab:  Solving for epsilon, Initial residual = 0, Final residual = 0, No Iterations 0
DILUPBiCGStab:  Solving for k, Initial residual = 0.0134811, Final residual = 0.000175779, No Iterations 1
ExecutionTime = 1.03 s  ClockTime = 1 s

Time = 15

DILUPBiCGStab:  Solving for Ux, Initial residual = 0.0353001, Final residual = 0.00143828, No Iterations 1
DILUPBiCGStab:  Solving for Uy, Initial residual = 0.0508766, Final residual = 0.00397403, No Iterations 1
DILUPBiCGStab:  Solving for Uz, Initial residual = 0.0551476, Final residual = 0.00271533, No Iterations 1
DILUPBiCGStab:  Solving for e, Initial residual = 0.0300391, Final residual = 0.000193996, No Iterations 1
DICPCG:  Solving for p_rgh, Initial residual = 0.261066, Final residual = 0.00195885, No Iterations 195
time step continuity errors : sum local = 242.354, global = -1.02122, cumulative = -6.15587
DILUPBiCGStab:  Solving for epsilon, Initial residual = 0, Final residual = 0, No Iterations 0
DILUPBiCGStab:  Solving for k, Initial residual = 0.0121678, Final residual = 0.000156022, No Iterations 1
ExecutionTime = 1.09 s  ClockTime = 1 s

Time = 16

DILUPBiCGStab:  Solving for Ux, Initial residual = 0.0722771, Final residual = 0.00273132, No Iterations 1
DILUPBiCGStab:  Solving for Uy, Initial residual = 0.072506, Final residual = 0.00505907, No Iterations 1
DILUPBiCGStab:  Solving for Uz, Initial residual = 0.0490256, Final residual = 0.00225473, No Iterations 1
DILUPBiCGStab:  Solving for e, Initial residual = 0.025485, Final residual = 0.0001467, No Iterations 1
DICPCG:  Solving for p_rgh, Initial residual = 0.078016, Final residual = 0.000705162, No Iterations 196
time step continuity errors : sum local = 243.908, global = -0.469456, cumulative = -6.62533
DILUPBiCGStab:  Solving for epsilon, Initial residual = 0, Final residual = 0, No Iterations 0
DILUPBiCGStab:  Solving for k, Initial residual = 0.0110741, Final residual = 0.000138232, No Iterations 1
ExecutionTime = 1.15 s  ClockTime = 1 s

Time = 17

DILUPBiCGStab:  Solving for Ux, Initial residual = 0.0439906, Final residual = 0.00159896, No Iterations 1
DILUPBiCGStab:  Solving for Uy, Initial residual = 0.043271, Final residual = 0.00324429, No Iterations 1
DILUPBiCGStab:  Solving for Uz, Initial residual = 0.0469421, Final residual = 0.00218181, No Iterations 1
DILUPBiCGStab:  Solving for e, Initial residual = 0.0204735, Final residual = 9.02368e-05, No Iterations 1
DICPCG:  Solving for p_rgh, Initial residual = 0.183436, Final residual = 0.00160764, No Iterations 198
time step continuity errors : sum local = 235.975, global = 0.385481, cumulative = -6.23984
DILUPBiCGStab:  Solving for epsilon, Initial residual = 0, Final residual = 0, No Iterations 0
DILUPBiCGStab:  Solving for k, Initial residual = 0.0101597, Final residual = 0.000123802, No Iterations 1
ExecutionTime = 1.21 s  ClockTime = 2 s

Time = 18

DILUPBiCGStab:  Solving for Ux, Initial residual = 0.0317794, Final residual = 0.000871906, No Iterations 1
DILUPBiCGStab:  Solving for Uy, Initial residual = 0.0437931, Final residual = 0.00231475, No Iterations 1
DILUPBiCGStab:  Solving for Uz, Initial residual = 0.0474252, Final residual = 0.00204616, No Iterations 1
DILUPBiCGStab:  Solving for e, Initial residual = 0.0217843, Final residual = 0.00010385, No Iterations 1
DICPCG:  Solving for p_rgh, Initial residual = 0.216552, Final residual = 0.00215125, No Iterations 196
time step continuity errors : sum local = 209.464, global = -0.27826, cumulative = -6.51811
DILUPBiCGStab:  Solving for epsilon, Initial residual = 0, Final residual = 0, No Iterations 0
DILUPBiCGStab:  Solving for k, Initial residual = 0.00934369, Final residual = 0.000111737, No Iterations 1
ExecutionTime = 1.27 s  ClockTime = 2 s

Time = 19

DILUPBiCGStab:  Solving for Ux, Initial residual = 0.0444325, Final residual = 0.00162225, No Iterations 1
DILUPBiCGStab:  Solving for Uy, Initial residual = 0.0433846, Final residual = 0.0034477, No Iterations 1
DILUPBiCGStab:  Solving for Uz, Initial residual = 0.0430871, Final residual = 0.00205903, No Iterations 1
DILUPBiCGStab:  Solving for e, Initial residual = 0.0182454, Final residual = 7.77219e-05, No Iterations 1
DICPCG:  Solving for p_rgh, Initial residual = 0.138046, Final residual = 0.00126683, No Iterations 196
time step continuity errors : sum local = 166.954, global = -0.943502, cumulative = -7.46161
DILUPBiCGStab:  Solving for epsilon, Initial residual = 0, Final residual = 0, No Iterations 0
DILUPBiCGStab:  Solving for k, Initial residual = 0.00862432, Final residual = 0.00010057, No Iterations 1
ExecutionTime = 1.32 s  ClockTime = 2 s

Time = 20

DILUPBiCGStab:  Solving for Ux, Initial residual = 0.02022, Final residual = 0.000903869, No Iterations 1
DILUPBiCGStab:  Solving for Uy, Initial residual = 0.0200319, Final residual = 0.00149748, No Iterations 1
DILUPBiCGStab:  Solving for Uz, Initial residual = 0.0373216, Final residual = 0.00154451, No Iterations 1
DILUPBiCGStab:  Solving for e, Initial residual = 0.0165195, Final residual = 5.25749e-05, No Iterations 1
DICPCG:  Solving for p_rgh, Initial residual = 0.283381, Final residual = 0.00265698, No Iterations 196
time step continuity errors : sum local = 158.44, global = -0.00806869, cumulative = -7.46968
DILUPBiCGStab:  Solving for epsilon, Initial residual = 0, Final residual = 0, No Iterations 0
DILUPBiCGStab:  Solving for k, Initial residual = 0.00798272, Final residual = 9.00098e-05, No Iterations 1
ExecutionTime = 1.38 s  ClockTime = 2 s

Time = 21

DILUPBiCGStab:  Solving for Ux, Initial residual = 0.0211231, Final residual = 0.000811011, No Iterations 1
DILUPBiCGStab:  Solving for Uy, Initial residual = 0.0271941, Final residual = 0.00129134, No Iterations 1
DILUPBiCGStab:  Solving for Uz, Initial residual = 0.0339631, Final residual = 0.00141354, No Iterations 1
DILUPBiCGStab:  Solving for e, Initial residual = 0.0162507, Final residual = 5.2259e-05, No Iterations 1
DICPCG:  Solving for p_rgh, Initial residual = 0.192277, Final residual = 0.00152803, No Iterations 182
time step continuity errors : sum local = 108.963, global = -0.121357, cumulative = -7.59103
DILUPBiCGStab:  Solving for epsilon, Initial residual = 0, Final residual = 0, No Iterations 0
DILUPBiCGStab:  Solving for k, Initial residual = 0.00742349, Final residual = 8.00505e-05, No Iterations 1
ExecutionTime = 1.44 s  ClockTime = 2 s

Time = 22

DILUPBiCGStab:  Solving for Ux, Initial residual = 0.0248702, Final residual = 0.0010198, No Iterations 1
DILUPBiCGStab:  Solving for Uy, Initial residual = 0.0257274, Final residual = 0.00169281, No Iterations 1
DILUPBiCGStab:  Solving for Uz, Initial residual = 0.0305362, Final residual = 0.0012881, No Iterations 1
DILUPBiCGStab:  Solving for e, Initial residual = 0.0140058, Final residual = 3.62014e-05, No Iterations 1
DICPCG:  Solving for p_rgh, Initial residual = 0.172791, Final residual = 0.0014171, No Iterations 198
time step continuity errors : sum local = 106.831, global = -0.0126652, cumulative = -7.6037
DILUPBiCGStab:  Solving for epsilon, Initial residual = 0, Final residual = 0, No Iterations 0
DILUPBiCGStab:  Solving for k, Initial residual = 0.00692679, Final residual = 7.10898e-05, No Iterations 1
ExecutionTime = 1.49 s  ClockTime = 2 s

Time = 23

DILUPBiCGStab:  Solving for Ux, Initial residual = 0.0114422, Final residual = 0.000491394, No Iterations 1
DILUPBiCGStab:  Solving for Uy, Initial residual = 0.0165917, Final residual = 0.00102899, No Iterations 1
DILUPBiCGStab:  Solving for Uz, Initial residual = 0.0296258, Final residual = 0.00142588, No Iterations 1
DILUPBiCGStab:  Solving for e, Initial residual = 0.0136675, Final residual = 3.21855e-05, No Iterations 1
DICPCG:  Solving for p_rgh, Initial residual = 0.390993, Final residual = 0.00312823, No Iterations 197
time step continuity errors : sum local = 96.2293, global = -0.248851, cumulative = -7.85255
DILUPBiCGStab:  Solving for epsilon, Initial residual = 0, Final residual = 0, No Iterations 0
DILUPBiCGStab:  Solving for k, Initial residual = 0.00648235, Final residual = 6.28019e-05, No Iterations 1
ExecutionTime = 1.55 s  ClockTime = 2 s

Time = 24

DILUPBiCGStab:  Solving for Ux, Initial residual = 0.0156511, Final residual = 0.000455489, No Iterations 1
DILUPBiCGStab:  Solving for Uy, Initial residual = 0.019109, Final residual = 0.00108679, No Iterations 1
DILUPBiCGStab:  Solving for Uz, Initial residual = 0.0271466, Final residual = 0.00126868, No Iterations 1
DILUPBiCGStab:  Solving for e, Initial residual = 0.0132108, Final residual = 3.15207e-05, No Iterations 1
DICPCG:  Solving for p_rgh, Initial residual = 0.183506, Final residual = 0.00180335, No Iterations 173
time step continuity errors : sum local = 97.0601, global = -2.68349, cumulative = -10.536
DILUPBiCGStab:  Solving for epsilon, Initial residual = 0, Final residual = 0, No Iterations 0
DILUPBiCGStab:  Solving for k, Initial residual = 0.00609807, Final residual = 5.54817e-05, No Iterations 1
ExecutionTime = 1.61 s  ClockTime = 2 s

Time = 25

DILUPBiCGStab:  Solving for Ux, Initial residual = 0.0140029, Final residual = 0.000540781, No Iterations 1
DILUPBiCGStab:  Solving for Uy, Initial residual = 0.0146095, Final residual = 0.00098474, No Iterations 1
DILUPBiCGStab:  Solving for Uz, Initial residual = 0.0248832, Final residual = 0.00120818, No Iterations 1
DILUPBiCGStab:  Solving for e, Initial residual = 0.0121185, Final residual = 2.53686e-05, No Iterations 1
DICPCG:  Solving for p_rgh, Initial residual = 0.186296, Final residual = 0.00158627, No Iterations 198
time step continuity errors : sum local = 76.7184, global = 0.820454, cumulative = -9.71559
DILUPBiCGStab:  Solving for epsilon, Initial residual = 0, Final residual = 0, No Iterations 0
DILUPBiCGStab:  Solving for k, Initial residual = 0.00573457, Final residual = 4.83467e-05, No Iterations 1
ExecutionTime = 1.66 s  ClockTime = 2 s

Time = 26

DILUPBiCGStab:  Solving for Ux, Initial residual = 0.00740079, Final residual = 0.000353009, No Iterations 1
DILUPBiCGStab:  Solving for Uy, Initial residual = 0.0114366, Final residual = 0.000530784, No Iterations 1
DILUPBiCGStab:  Solving for Uz, Initial residual = 0.024979, Final residual = 0.0011577, No Iterations 1
DILUPBiCGStab:  Solving for e, Initial residual = 0.011866, Final residual = 2.21894e-05, No Iterations 1
DICPCG:  Solving for p_rgh, Initial residual = 0.327569, Final residual = 0.00303155, No Iterations 198
time step continuity errors : sum local = 74.3538, global = 0.000923353, cumulative = -9.71466
DILUPBiCGStab:  Solving for epsilon, Initial residual = 0, Final residual = 0, No Iterations 0
DILUPBiCGStab:  Solving for k, Initial residual = 0.00541034, Final residual = 4.216e-05, No Iterations 1
ExecutionTime = 1.72 s  ClockTime = 2 s

Time = 27

DILUPBiCGStab:  Solving for Ux, Initial residual = 0.0104321, Final residual = 0.000367312, No Iterations 1
DILUPBiCGStab:  Solving for Uy, Initial residual = 0.013814, Final residual = 0.000721095, No Iterations 1
DILUPBiCGStab:  Solving for Uz, Initial residual = 0.0238893, Final residual = 0.00128131, No Iterations 1
DILUPBiCGStab:  Solving for e, Initial residual = 0.0112772, Final residual = 1.99724e-05, No Iterations 1
DICPCG:  Solving for p_rgh, Initial residual = 0.174896, Final residual = 0.00171442, No Iterations 187
time step continuity errors : sum local = 70.504, global = -2.58837, cumulative = -12.303
DILUPBiCGStab:  Solving for epsilon, Initial residual = 0, Final residual = 0, No Iterations 0
DILUPBiCGStab:  Solving for k, Initial residual = 0.00511119, Final residual = 3.64312e-05, No Iterations 1
ExecutionTime = 1.78 s  ClockTime = 2 s

Time = 28

DILUPBiCGStab:  Solving for Ux, Initial residual = 0.00864138, Final residual = 0.000343296, No Iterations 1
DILUPBiCGStab:  Solving for Uy, Initial residual = 0.00988451, Final residual = 0.000696879, No Iterations 1
DILUPBiCGStab:  Solving for Uz, Initial residual = 0.0224835, Final residual = 0.00147186, No Iterations 1
DILUPBiCGStab:  Solving for e, Initial residual = 0.0106239, Final residual = 1.68867e-05, No Iterations 1
DICPCG:  Solving for p_rgh, Initial residual = 0.204538, Final residual = 0.00158372, No Iterations 198
time step continuity errors : sum local = 53.2653, global = -0.125645, cumulative = -12.4287
DILUPBiCGStab:  Solving for epsilon, Initial residual = 0, Final residual = 0, No Iterations 0
DILUPBiCGStab:  Solving for k, Initial residual = 0.00484459, Final residual = 3.18479e-05, No Iterations 1
ExecutionTime = 1.83 s  ClockTime = 2 s

Time = 29

DILUPBiCGStab:  Solving for Ux, Initial residual = 0.0066104, Final residual = 0.000274146, No Iterations 1
DILUPBiCGStab:  Solving for Uy, Initial residual = 0.00996044, Final residual = 0.000613421, No Iterations 1
DILUPBiCGStab:  Solving for Uz, Initial residual = 0.0220435, Final residual = 0.00149542, No Iterations 1
DILUPBiCGStab:  Solving for e, Initial residual = 0.0103748, Final residual = 1.67167e-05, No Iterations 1
DICPCG:  Solving for p_rgh, Initial residual = 0.269189, Final residual = 0.00256312, No Iterations 197
time step continuity errors : sum local = 58.9548, global = -0.561617, cumulative = -12.9903
DILUPBiCGStab:  Solving for epsilon, Initial residual = 0, Final residual = 0, No Iterations 0
DILUPBiCGStab:  Solving for k, Initial residual = 0.00460315, Final residual = 2.80099e-05, No Iterations 1
ExecutionTime = 1.89 s  ClockTime = 2 s

Time = 30

DILUPBiCGStab:  Solving for Ux, Initial residual = 0.00750475, Final residual = 0.000277188, No Iterations 1
DILUPBiCGStab:  Solving for Uy, Initial residual = 0.00977811, Final residual = 0.000525355, No Iterations 1
DILUPBiCGStab:  Solving for Uz, Initial residual = 0.0212131, Final residual = 0.00122253, No Iterations 1
DILUPBiCGStab:  Solving for e, Initial residual = 0.00994761, Final residual = 1.69517e-05, No Iterations 1
DICPCG:  Solving for p_rgh, Initial residual = 0.187191, Final residual = 0.00165928, No Iterations 197
time step continuity errors : sum local = 49.0969, global = 0.201407, cumulative = -12.7889
DILUPBiCGStab:  Solving for epsilon, Initial residual = 0, Final residual = 0, No Iterations 0
DILUPBiCGStab:  Solving for k, Initial residual = 0.00437883, Final residual = 2.5148e-05, No Iterations 1
ExecutionTime = 1.95 s  ClockTime = 2 s

Time = 31

DILUPBiCGStab:  Solving for Ux, Initial residual = 0.00569038, Final residual = 0.000268815, No Iterations 1
DILUPBiCGStab:  Solving for Uy, Initial residual = 0.00758359, Final residual = 0.000443182, No Iterations 1
DILUPBiCGStab:  Solving for Uz, Initial residual = 0.0203528, Final residual = 0.00131771, No Iterations 1
DILUPBiCGStab:  Solving for e, Initial residual = 0.00964886, Final residual = 1.74456e-05, No Iterations 1
DICPCG:  Solving for p_rgh, Initial residual = 0.216965, Final residual = 0.00173455, No Iterations 198
time step continuity errors : sum local = 40.1196, global = 0.329421, cumulative = -12.4595
DILUPBiCGStab:  Solving for epsilon, Initial residual = 0, Final residual = 0, No Iterations 0
DILUPBiCGStab:  Solving for k, Initial residual = 0.0041733, Final residual = 2.30479e-05, No Iterations 1
ExecutionTime = 2.01 s  ClockTime = 2 s

Time = 32

DILUPBiCGStab:  Solving for Ux, Initial residual = 0.00503069, Final residual = 0.000258542, No Iterations 1
DILUPBiCGStab:  Solving for Uy, Initial residual = 0.00827907, Final residual = 0.000497814, No Iterations 1
DILUPBiCGStab:  Solving for Uz, Initial residual = 0.0204271, Final residual = 0.00142733, No Iterations 1
DILUPBiCGStab:  Solving for e, Initial residual = 0.00939369, Final residual = 1.78538e-05, No Iterations 1
DICPCG:  Solving for p_rgh, Initial residual = 0.199601, Final residual = 0.00163336, No Iterations 198
time step continuity errors : sum local = 36.3522, global = 0.0402047, cumulative = -12.4193
DILUPBiCGStab:  Solving for epsilon, Initial residual = 0, Final residual = 0, No Iterations 0
DILUPBiCGStab:  Solving for k, Initial residual = 0.00398164, Final residual = 2.14108e-05, No Iterations 1
ExecutionTime = 2.07 s  ClockTime = 2 s

Time = 33

DILUPBiCGStab:  Solving for Ux, Initial residual = 0.00524804, Final residual = 0.000251882, No Iterations 1
DILUPBiCGStab:  Solving for Uy, Initial residual = 0.00741477, Final residual = 0.000546067, No Iterations 1
DILUPBiCGStab:  Solving for Uz, Initial residual = 0.0201755, Final residual = 0.00144299, No Iterations 1
DILUPBiCGStab:  Solving for e, Initial residual = 0.00904003, Final residual = 1.77299e-05, No Iterations 1
DICPCG:  Solving for p_rgh, Initial residual = 0.174913, Final residual = 0.00135811, No Iterations 198
time step continuity errors : sum local = 32.4729, global = 0.0945696, cumulative = -12.3247
DILUPBiCGStab:  Solving for epsilon, Initial residual = 0, Final residual = 0, No Iterations 0
DILUPBiCGStab:  Solving for k, Initial residual = 0.00380483, Final residual = 2.00151e-05, No Iterations 1
ExecutionTime = 2.12 s  ClockTime = 2 s

Time = 34

DILUPBiCGStab:  Solving for Ux, Initial residual = 0.00452461, Final residual = 0.000251227, No Iterations 1
DILUPBiCGStab:  Solving for Uy, Initial residual = 0.00632359, Final residual = 0.000507677, No Iterations 1
DILUPBiCGStab:  Solving for Uz, Initial residual = 0.0197091, Final residual = 0.00141923, No Iterations 1
DILUPBiCGStab:  Solving for e, Initial residual = 0.00875768, Final residual = 1.7839e-05, No Iterations 1
DICPCG:  Solving for p_rgh, Initial residual = 0.210907, Final residual = 0.00165161, No Iterations 197
time step continuity errors : sum local = 31.4512, global = 0.00468683, cumulative = -12.32
DILUPBiCGStab:  Solving for epsilon, Initial residual = 0, Final residual = 0, No Iterations 0
DILUPBiCGStab:  Solving for k, Initial residual = 0.0036452, Final residual = 1.89353e-05, No Iterations 1
ExecutionTime = 2.18 s  ClockTime = 2 s

Time = 35

DILUPBiCGStab:  Solving for Ux, Initial residual = 0.00470919, Final residual = 0.000252797, No Iterations 1
DILUPBiCGStab:  Solving for Uy, Initial residual = 0.0069522, Final residual = 0.000529193, No Iterations 1
DILUPBiCGStab:  Solving for Uz, Initial residual = 0.0195018, Final residual = 0.00136342, No Iterations 1
DILUPBiCGStab:  Solving for e, Initial residual = 0.00851106, Final residual = 1.82156e-05, No Iterations 1
DICPCG:  Solving for p_rgh, Initial residual = 0.186604, Final residual = 0.00168375, No Iterations 86
time step continuity errors : sum local = 33.1477, global = 1.94486, cumulative = -10.3751
DILUPBiCGStab:  Solving for epsilon, Initial residual = 0, Final residual = 0, No Iterations 0
DILUPBiCGStab:  Solving for k, Initial residual = 0.0034998, Final residual = 1.81272e-05, No Iterations 1
ExecutionTime = 2.22 s  ClockTime = 3 s

Time = 36

DILUPBiCGStab:  Solving for Ux, Initial residual = 0.00441545, Final residual = 0.000248039, No Iterations 1
DILUPBiCGStab:  Solving for Uy, Initial residual = 0.00635482, Final residual = 0.000496747, No Iterations 1
DILUPBiCGStab:  Solving for Uz, Initial residual = 0.0191451, Final residual = 0.00133398, No Iterations 1
DILUPBiCGStab:  Solving for e, Initial residual = 0.00830137, Final residual = 1.91492e-05, No Iterations 1
DICPCG:  Solving for p_rgh, Initial residual = 0.175536, Final residual = 0.00171322, No Iterations 199
time step continuity errors : sum local = 33.2345, global = 0.0733378, cumulative = -10.3018
DILUPBiCGStab:  Solving for epsilon, Initial residual = 0, Final residual = 0, No Iterations 0
DILUPBiCGStab:  Solving for k, Initial residual = 0.00336284, Final residual = 1.75696e-05, No Iterations 1
ExecutionTime = 2.28 s  ClockTime = 3 s

Time = 37

DILUPBiCGStab:  Solving for Ux, Initial residual = 0.0038746, Final residual = 0.000254947, No Iterations 1
DILUPBiCGStab:  Solving for Uy, Initial residual = 0.00608054, Final residual = 0.000522333, No Iterations 1
DILUPBiCGStab:  Solving for Uz, Initial residual = 0.0194472, Final residual = 0.00135023, No Iterations 1
DILUPBiCGStab:  Solving for e, Initial residual = 0.00812046, Final residual = 2.01001e-05, No Iterations 1
DICPCG:  Solving for p_rgh, Initial residual = 0.180681, Final residual = 0.00171982, No Iterations 188
time step continuity errors : sum local = 30.3969, global = -0.531683, cumulative = -10.8335
DILUPBiCGStab:  Solving for epsilon, Initial residual = 0, Final residual = 0, No Iterations 0
DILUPBiCGStab:  Solving for k, Initial residual = 0.0032376, Final residual = 1.73464e-05, No Iterations 1
ExecutionTime = 2.34 s  ClockTime = 3 s

Time = 38

DILUPBiCGStab:  Solving for Ux, Initial residual = 0.0039132, Final residual = 0.000263095, No Iterations 1
DILUPBiCGStab:  Solving for Uy, Initial residual = 0.00614066, Final residual = 0.000571551, No Iterations 1
DILUPBiCGStab:  Solving for Uz, Initial residual = 0.0202081, Final residual = 0.00142187, No Iterations 1
DILUPBiCGStab:  Solving for e, Initial residual = 0.00791961, Final residual = 2.07047e-05, No Iterations 1
DICPCG:  Solving for p_rgh, Initial residual = 0.149202, Final residual = 0.00131768, No Iterations 199
time step continuity errors : sum local = 25.8569, global = 0.0234389, cumulative = -10.8101
DILUPBiCGStab:  Solving for epsilon, Initial residual = 0, Final residual = 0, No Iterations 0
DILUPBiCGStab:  Solving for k, Initial residual = 0.00312045, Final residual = 1.71469e-05, No Iterations 1
ExecutionTime = 2.39 s  ClockTime = 3 s

Time = 39

DILUPBiCGStab:  Solving for Ux, Initial residual = 0.0037366, Final residual = 0.000264169, No Iterations 1
DILUPBiCGStab:  Solving for Uy, Initial residual = 0.00550491, Final residual = 0.000527273, No Iterations 1
DILUPBiCGStab:  Solving for Uz, Initial residual = 0.0205208, Final residual = 0.00143114, No Iterations 1
DILUPBiCGStab:  Solving for e, Initial residual = 0.0077104, Final residual = 2.11078e-05, No Iterations 1
DICPCG:  Solving for p_rgh, Initial residual = 0.15372, Final residual = 0.00127219, No Iterations 201
time step continuity errors : sum local = 23.111, global = -0.00253921, cumulative = -10.8126
DILUPBiCGStab:  Solving for epsilon, Initial residual = 0, Final residual = 0, No Iterations 0
DILUPBiCGStab:  Solving for k, Initial residual = 0.00301498, Final residual = 1.71641e-05, No Iterations 1
ExecutionTime = 2.45 s  ClockTime = 3 s

Time = 40

DILUPBiCGStab:  Solving for Ux, Initial residual = 0.00370415, Final residual = 0.000264222, No Iterations 1
DILUPBiCGStab:  Solving for Uy, Initial residual = 0.00558399, Final residual = 0.000540977, No Iterations 1
DILUPBiCGStab:  Solving for Uz, Initial residual = 0.0203967, Final residual = 0.00136788, No Iterations 1
DILUPBiCGStab:  Solving for e, Initial residual = 0.00752314, Final residual = 2.15899e-05, No Iterations 1
DICPCG:  Solving for p_rgh, Initial residual = 0.164429, Final residual = 0.0013503, No Iterations 200
time step continuity errors : sum local = 22.1543, global = 0.104048, cumulative = -10.7085
DILUPBiCGStab:  Solving for epsilon, Initial residual = 0, Final residual = 0, No Iterations 0
DILUPBiCGStab:  Solving for k, Initial residual = 0.00291478, Final residual = 1.72067e-05, No Iterations 1
ExecutionTime = 2.51 s  ClockTime = 3 s

Time = 41

DILUPBiCGStab:  Solving for Ux, Initial residual = 0.0036773, Final residual = 0.000265341, No Iterations 1
DILUPBiCGStab:  Solving for Uy, Initial residual = 0.00551303, Final residual = 0.000540939, No Iterations 1
DILUPBiCGStab:  Solving for Uz, Initial residual = 0.0203127, Final residual = 0.00131849, No Iterations 1
DILUPBiCGStab:  Solving for e, Initial residual = 0.00735281, Final residual = 2.20493e-05, No Iterations 1
DICPCG:  Solving for p_rgh, Initial residual = 0.149375, Final residual = 0.00109542, No Iterations 200
time step continuity errors : sum local = 18.7578, global = -0.0280617, cumulative = -10.7366
DILUPBiCGStab:  Solving for epsilon, Initial residual = 0, Final residual = 0, No Iterations 0
DILUPBiCGStab:  Solving for k, Initial residual = 0.00282162, Final residual = 1.7437e-05, No Iterations 1
ExecutionTime = 2.57 s  ClockTime = 3 s

Time = 42

DILUPBiCGStab:  Solving for Ux, Initial residual = 0.00343807, Final residual = 0.000262407, No Iterations 1
DILUPBiCGStab:  Solving for Uy, Initial residual = 0.00532932, Final residual = 5.57706e-05, No Iterations 1
DILUPBiCGStab:  Solving for Uz, Initial residual = 0.0201257, Final residual = 0.00125976, No Iterations 1
DILUPBiCGStab:  Solving for e, Initial residual = 0.00720227, Final residual = 2.25289e-05, No Iterations 1
DICPCG:  Solving for p_rgh, Initial residual = 0.149585, Final residual = 0.00125281, No Iterations 199
time step continuity errors : sum local = 19.7061, global = -0.0923254, cumulative = -10.8289
DILUPBiCGStab:  Solving for epsilon, Initial residual = 0, Final residual = 0, No Iterations 0
DILUPBiCGStab:  Solving for k, Initial residual = 0.00273628, Final residual = 1.77015e-05, No Iterations 1
ExecutionTime = 2.63 s  ClockTime = 3 s

Time = 43

DILUPBiCGStab:  Solving for Ux, Initial residual = 0.00332303, Final residual = 0.000265157, No Iterations 1
DILUPBiCGStab:  Solving for Uy, Initial residual = 0.0054184, Final residual = 5.73116e-05, No Iterations 1
DILUPBiCGStab:  Solving for Uz, Initial residual = 0.0198627, Final residual = 0.00119176, No Iterations 1
DILUPBiCGStab:  Solving for e, Initial residual = 0.00705936, Final residual = 2.28856e-05, No Iterations 1
DICPCG:  Solving for p_rgh, Initial residual = 0.133812, Final residual = 0.0012883, No Iterations 45
time step continuity errors : sum local = 21.4912, global = 1.70497, cumulative = -9.12396
DILUPBiCGStab:  Solving for epsilon, Initial residual = 0, Final residual = 0, No Iterations 0
DILUPBiCGStab:  Solving for k, Initial residual = 0.00265613, Final residual = 1.80575e-05, No Iterations 1
ExecutionTime = 2.66 s  ClockTime = 3 s

Time = 44

DILUPBiCGStab:  Solving for Ux, Initial residual = 0.00324392, Final residual = 0.00026538, No Iterations 1
DILUPBiCGStab:  Solving for Uy, Initial residual = 0.00517261, Final residual = 5.5082e-05, No Iterations 1
DILUPBiCGStab:  Solving for Uz, Initial residual = 0.019772, Final residual = 0.00117109, No Iterations 1
DILUPBiCGStab:  Solving for e, Initial residual = 0.00691243, Final residual = 2.31461e-05, No Iterations 1
DICPCG:  Solving for p_rgh, Initial residual = 0.130403, Final residual = 0.00126047, No Iterations 197
time step continuity errors : sum local = 20.9228, global = 0.137016, cumulative = -8.98694
DILUPBiCGStab:  Solving for epsilon, Initial residual = 0, Final residual = 0, No Iterations 0
DILUPBiCGStab:  Solving for k, Initial residual = 0.00258148, Final residual = 1.84629e-05, No Iterations 1
ExecutionTime = 2.71 s  ClockTime = 3 s

Time = 45

DILUPBiCGStab:  Solving for Ux, Initial residual = 0.00320302, Final residual = 0.000261609, No Iterations 1
DILUPBiCGStab:  Solving for Uy, Initial residual = 0.00505269, Final residual = 5.28809e-05, No Iterations 1
DILUPBiCGStab:  Solving for Uz, Initial residual = 0.0199843, Final residual = 0.00118144, No Iterations 1
DILUPBiCGStab:  Solving for e, Initial residual = 0.00677152, Final residual = 2.32503e-05, No Iterations 1
DICPCG:  Solving for p_rgh, Initial residual = 0.132281, Final residual = 0.00112088, No Iterations 185
time step continuity errors : sum local = 17.8365, global = 0.0402842, cumulative = -8.94666
DILUPBiCGStab:  Solving for epsilon, Initial residual = 0, Final residual = 0, No Iterations 0
DILUPBiCGStab:  Solving for k, Initial residual = 0.00251202, Final residual = 1.8992e-05, No Iterations 1
ExecutionTime = 2.77 s  ClockTime = 3 s

Time = 46

DILUPBiCGStab:  Solving for Ux, Initial residual = 0.00322226, Final residual = 0.000263274, No Iterations 1
DILUPBiCGStab:  Solving for Uy, Initial residual = 0.00508567, Final residual = 5.1306e-05, No Iterations 1
DILUPBiCGStab:  Solving for Uz, Initial residual = 0.0196922, Final residual = 0.00128795, No Iterations 1
DILUPBiCGStab:  Solving for e, Initial residual = 0.00663793, Final residual = 2.32465e-05, No Iterations 1
DICPCG:  Solving for p_rgh, Initial residual = 0.133729, Final residual = 0.0012362, No Iterations 46
time step continuity errors : sum local = 18.8383, global = -1.49163, cumulative = -10.4383
DILUPBiCGStab:  Solving for epsilon, Initial residual = 0, Final residual = 0, No Iterations 0
DILUPBiCGStab:  Solving for k, Initial residual = 0.00244607, Final residual = 1.95915e-05, No Iterations 1
ExecutionTime = 2.8 s  ClockTime = 3 s

Time = 47

DILUPBiCGStab:  Solving for Ux, Initial residual = 0.00316182, Final residual = 0.000260759, No Iterations 1
DILUPBiCGStab:  Solving for Uy, Initial residual = 0.00505101, Final residual = 5.08323e-05, No Iterations 1
DILUPBiCGStab:  Solving for Uz, Initial residual = 0.0199722, Final residual = 0.00123208, No Iterations 1
DILUPBiCGStab:  Solving for e, Initial residual = 0.00650968, Final residual = 2.31081e-05, No Iterations 1
DICPCG:  Solving for p_rgh, Initial residual = 0.12864, Final residual = 0.0012302, No Iterations 58
time step continuity errors : sum local = 18.5544, global = 1.64566, cumulative = -8.79263
DILUPBiCGStab:  Solving for epsilon, Initial residual = 0, Final residual = 0, No Iterations 0
DILUPBiCGStab:  Solving for k, Initial residual = 0.00238401, Final residual = 2.01163e-05, No Iterations 1
ExecutionTime = 2.84 s  ClockTime = 3 s

Time = 48

DILUPBiCGStab:  Solving for Ux, Initial residual = 0.00306085, Final residual = 0.000257093, No Iterations 1
DILUPBiCGStab:  Solving for Uy, Initial residual = 0.00495782, Final residual = 5.06455e-05, No Iterations 1
DILUPBiCGStab:  Solving for Uz, Initial residual = 0.0196831, Final residual = 0.00118001, No Iterations 1
DILUPBiCGStab:  Solving for e, Initial residual = 0.00639267, Final residual = 2.28593e-05, No Iterations 1
DICPCG:  Solving for p_rgh, Initial residual = 0.120238, Final residual = 0.00111611, No Iterations 153
time step continuity errors : sum local = 16.6701, global = 0.00981712, cumulative = -8.78281
DILUPBiCGStab:  Solving for epsilon, Initial residual = 0, Final residual = 0, No Iterations 0
DILUPBiCGStab:  Solving for k, Initial residual = 0.00232582, Final residual = 2.05961e-05, No Iterations 1
ExecutionTime = 2.89 s  ClockTime = 3 s

Time = 49

DILUPBiCGStab:  Solving for Ux, Initial residual = 0.00299171, Final residual = 0.000253144, No Iterations 1
DILUPBiCGStab:  Solving for Uy, Initial residual = 0.00488976, Final residual = 4.97593e-05, No Iterations 1
DILUPBiCGStab:  Solving for Uz, Initial residual = 0.020056, Final residual = 0.00118778, No Iterations 1
DILUPBiCGStab:  Solving for e, Initial residual = 0.00628517, Final residual = 2.26042e-05, No Iterations 1
DICPCG:  Solving for p_rgh, Initial residual = 0.11285, Final residual = 0.00106334, No Iterations 55
time step continuity errors : sum local = 16.2001, global = 1.46428, cumulative = -7.31853
DILUPBiCGStab:  Solving for epsilon, Initial residual = 0, Final residual = 0, No Iterations 0
DILUPBiCGStab:  Solving for k, Initial residual = 0.00226987, Final residual = 2.11191e-05, No Iterations 1
ExecutionTime = 2.92 s  ClockTime = 3 s

Time = 50

DILUPBiCGStab:  Solving for Ux, Initial residual = 0.00296414, Final residual = 0.000251119, No Iterations 1
DILUPBiCGStab:  Solving for Uy, Initial residual = 0.00482098, Final residual = 4.87062e-05, No Iterations 1
DILUPBiCGStab:  Solving for Uz, Initial residual = 0.0198129, Final residual = 0.00112233, No Iterations 1
DILUPBiCGStab:  Solving for e, Initial residual = 0.00617462, Final residual = 2.21551e-05, No Iterations 1
DICPCG:  Solving for p_rgh, Initial residual = 0.107709, Final residual = 0.000957888, No Iterations 95
time step continuity errors : sum local = 14.5459, global = 0.565368, cumulative = -6.75316
DILUPBiCGStab:  Solving for epsilon, Initial residual = 0, Final residual = 0, No Iterations 0
DILUPBiCGStab:  Solving for k, Initial residual = 0.00221918, Final residual = 2.18653e-05, No Iterations 1
ExecutionTime = 2.96 s  ClockTime = 3 s

Time = 51

DILUPBiCGStab:  Solving for Ux, Initial residual = 0.00295376, Final residual = 0.000252272, No Iterations 1
DILUPBiCGStab:  Solving for Uy, Initial residual = 0.00483292, Final residual = 4.83086e-05, No Iterations 1
DILUPBiCGStab:  Solving for Uz, Initial residual = 0.0199009, Final residual = 0.00117997, No Iterations 1
DILUPBiCGStab:  Solving for e, Initial residual = 0.00606863, Final residual = 2.15448e-05, No Iterations 1
DICPCG:  Solving for p_rgh, Initial residual = 0.103096, Final residual = 0.00095206, No Iterations 44
time step continuity errors : sum local = 14.4399, global = 0.386323, cumulative = -6.36684
DILUPBiCGStab:  Solving for epsilon, Initial residual = 0, Final residual = 0, No Iterations 0
DILUPBiCGStab:  Solving for k, Initial residual = 0.00216827, Final residual = 2.26445e-05, No Iterations 1
ExecutionTime = 2.99 s  ClockTime = 3 s

Time = 52

DILUPBiCGStab:  Solving for Ux, Initial residual = 0.00292913, Final residual = 0.000251701, No Iterations 1
DILUPBiCGStab:  Solving for Uy, Initial residual = 0.00482133, Final residual = 4.75812e-05, No Iterations 1
DILUPBiCGStab:  Solving for Uz, Initial residual = 0.0199226, Final residual = 0.00117576, No Iterations 1
DILUPBiCGStab:  Solving for e, Initial residual = 0.00596516, Final residual = 2.08162e-05, No Iterations 1
DICPCG:  Solving for p_rgh, Initial residual = 0.101444, Final residual = 0.000981155, No Iterations 84
time step continuity errors : sum local = 14.8025, global = -0.200815, cumulative = -6.56766
DILUPBiCGStab:  Solving for epsilon, Initial residual = 0, Final residual = 0, No Iterations 0
DILUPBiCGStab:  Solving for k, Initial residual = 0.00212219, Final residual = 2.34294e-05, No Iterations 1
ExecutionTime = 3.03 s  ClockTime = 3 s

Time = 53

DILUPBiCGStab:  Solving for Ux, Initial residual = 0.00289153, Final residual = 0.000248738, No Iterations 1
DILUPBiCGStab:  Solving for Uy, Initial residual = 0.0047245, Final residual = 4.63716e-05, No Iterations 1
DILUPBiCGStab:  Solving for Uz, Initial residual = 0.019371, Final residual = 0.0011373, No Iterations 1
DILUPBiCGStab:  Solving for e, Initial residual = 0.00587055, Final residual = 1.99834e-05, No Iterations 1
DICPCG:  Solving for p_rgh, Initial residual = 0.0999618, Final residual = 0.000988574, No Iterations 107
time step continuity errors : sum local = 14.8738, global = -0.859908, cumulative = -7.42756
DILUPBiCGStab:  Solving for epsilon, Initial residual = 0, Final residual = 0, No Iterations 0
DILUPBiCGStab:  Solving for k, Initial residual = 0.00207778, Final residual = 2.42659e-05, No Iterations 1
ExecutionTime = 3.07 s  ClockTime = 3 s

Time = 54

DILUPBiCGStab:  Solving for Ux, Initial residual = 0.00284807, Final residual = 0.000244907, No Iterations 1
DILUPBiCGStab:  Solving for Uy, Initial residual = 0.00466832, Final residual = 4.50541e-05, No Iterations 1
DILUPBiCGStab:  Solving for Uz, Initial residual = 0.0198687, Final residual = 0.00119368, No Iterations 1
DILUPBiCGStab:  Solving for e, Initial residual = 0.00578228, Final residual = 1.91018e-05, No Iterations 1
DICPCG:  Solving for p_rgh, Initial residual = 0.100565, Final residual = 0.000893921, No Iterations 197
time step continuity errors : sum local = 13.1346, global = -0.0332764, cumulative = -7.46084
DILUPBiCGStab:  Solving for epsilon, Initial residual = 0, Final residual = 0, No Iterations 0
DILUPBiCGStab:  Solving for k, Initial residual = 0.00203578, Final residual = 2.52172e-05, No Iterations 1
ExecutionTime = 3.13 s  ClockTime = 3 s

Time = 55

DILUPBiCGStab:  Solving for Ux, Initial residual = 0.00281566, Final residual = 0.000244176, No Iterations 1
DILUPBiCGStab:  Solving for Uy, Initial residual = 0.00462822, Final residual = 4.40707e-05, No Iterations 1
DILUPBiCGStab:  Solving for Uz, Initial residual = 0.0197324, Final residual = 0.00110536, No Iterations 1
DILUPBiCGStab:  Solving for e, Initial residual = 0.00569211, Final residual = 1.81246e-05, No Iterations 1
DICPCG:  Solving for p_rgh, Initial residual = 0.0903324, Final residual = 0.000876756, No Iterations 79
time step continuity errors : sum local = 12.4295, global = -0.0834057, cumulative = -7.54425
DILUPBiCGStab:  Solving for epsilon, Initial residual = 0, Final residual = 0, No Iterations 0
DILUPBiCGStab:  Solving for k, Initial residual = 0.00199464, Final residual = 2.62578e-05, No Iterations 1
ExecutionTime = 3.16 s  ClockTime = 3 s

Time = 56

DILUPBiCGStab:  Solving for Ux, Initial residual = 0.00281071, Final residual = 0.000243594, No Iterations 1
DILUPBiCGStab:  Solving for Uy, Initial residual = 0.00464919, Final residual = 4.39534e-05, No Iterations 1
DILUPBiCGStab:  Solving for Uz, Initial residual = 0.0194699, Final residual = 0.00112763, No Iterations 1
DILUPBiCGStab:  Solving for e, Initial residual = 0.00560607, Final residual = 1.71003e-05, No Iterations 1
DICPCG:  Solving for p_rgh, Initial residual = 0.0882584, Final residual = 0.000863283, No Iterations 119
time step continuity errors : sum local = 12.0909, global = 1.02138, cumulative = -6.52287
DILUPBiCGStab:  Solving for epsilon, Initial residual = 0, Final residual = 0, No Iterations 0
DILUPBiCGStab:  Solving for k, Initial residual = 0.00195569, Final residual = 2.74514e-05, No Iterations 1
ExecutionTime = 3.21 s  ClockTime = 4 s

Time = 57

DILUPBiCGStab:  Solving for Ux, Initial residual = 0.00278808, Final residual = 0.000240905, No Iterations 1
DILUPBiCGStab:  Solving for Uy, Initial residual = 0.00459783, Final residual = 4.39783e-05, No Iterations 1
DILUPBiCGStab:  Solving for Uz, Initial residual = 0.0192796, Final residual = 0.000977945, No Iterations 1
DILUPBiCGStab:  Solving for e, Initial residual = 0.00551904, Final residual = 1.59891e-05, No Iterations 1
DICPCG:  Solving for p_rgh, Initial residual = 0.0888456, Final residual = 0.000820042, No Iterations 196
time step continuity errors : sum local = 11.4166, global = -0.0464195, cumulative = -6.56929
DILUPBiCGStab:  Solving for epsilon, Initial residual = 0, Final residual = 0, No Iterations 0
DILUPBiCGStab:  Solving for k, Initial residual = 0.00191806, Final residual = 2.87544e-05, No Iterations 1
ExecutionTime = 3.27 s  ClockTime = 4 s

Time = 58

DILUPBiCGStab:  Solving for Ux, Initial residual = 0.00272592, Final residual = 0.00023284, No Iterations 1
DILUPBiCGStab:  Solving for Uy, Initial residual = 0.00445712, Final residual = 4.26078e-05, No Iterations 1
DILUPBiCGStab:  Solving for Uz, Initial residual = 0.0189439, Final residual = 0.000980657, No Iterations 1
DILUPBiCGStab:  Solving for e, Initial residual = 0.00544359, Final residual = 1.48813e-05, No Iterations 1
DICPCG:  Solving for p_rgh, Initial residual = 0.0804809, Final residual = 0.000656402, No Iterations 119
time step continuity errors : sum local = 9.44185, global = 0.27778, cumulative = -6.29151
DILUPBiCGStab:  Solving for epsilon, Initial residual = 0, Final residual = 0, No Iterations 0
DILUPBiCGStab:  Solving for k, Initial residual = 0.00188156, Final residual = 3.02794e-05, No Iterations 1
ExecutionTime = 3.32 s  ClockTime = 4 s

Time = 59

DILUPBiCGStab:  Solving for Ux, Initial residual = 0.00269978, Final residual = 0.000226406, No Iterations 1
DILUPBiCGStab:  Solving for Uy, Initial residual = 0.00437187, Final residual = 3.9831e-05, No Iterations 1
DILUPBiCGStab:  Solving for Uz, Initial residual = 0.0189742, Final residual = 0.00101385, No Iterations 1
DILUPBiCGStab:  Solving for e, Initial residual = 0.00536785, Final residual = 1.37192e-05, No Iterations 1
DICPCG:  Solving for p_rgh, Initial residual = 0.0739781, Final residual = 0.000734014, No Iterations 143
time step continuity errors : sum local = 10.4531, global = -1.10602, cumulative = -7.39752
DILUPBiCGStab:  Solving for epsilon, Initial residual = 0, Final residual = 0, No Iterations 0
DILUPBiCGStab:  Solving for k, Initial residual = 0.00184572, Final residual = 3.20205e-05, No Iterations 1
ExecutionTime = 3.37 s  ClockTime = 4 s

Time = 60

DILUPBiCGStab:  Solving for Ux, Initial residual = 0.00269385, Final residual = 0.000222161, No Iterations 1
DILUPBiCGStab:  Solving for Uy, Initial residual = 0.00438559, Final residual = 3.79344e-05, No Iterations 1
DILUPBiCGStab:  Solving for Uz, Initial residual = 0.0191435, Final residual = 0.00111787, No Iterations 1
DILUPBiCGStab:  Solving for e, Initial residual = 0.00529552, Final residual = 1.25749e-05, No Iterations 1
DICPCG:  Solving for p_rgh, Initial residual = 0.0741911, Final residual = 0.000669478, No Iterations 198
time step continuity errors : sum local = 9.3522, global = 0.0667312, cumulative = -7.33079
DILUPBiCGStab:  Solving for epsilon, Initial residual = 0, Final residual = 0, No Iterations 0
DILUPBiCGStab:  Solving for k, Initial residual = 0.00181247, Final residual = 3.39551e-05, No Iterations 1
ExecutionTime = 3.42 s  ClockTime = 4 s

Time = 61

DILUPBiCGStab:  Solving for Ux, Initial residual = 0.00268558, Final residual = 0.000221263, No Iterations 1
DILUPBiCGStab:  Solving for Uy, Initial residual = 0.00437983, Final residual = 3.59728e-05, No Iterations 1
DILUPBiCGStab:  Solving for Uz, Initial residual = 0.0197394, Final residual = 0.00107663, No Iterations 1
DILUPBiCGStab:  Solving for e, Initial residual = 0.00522046, Final residual = 1.14139e-05, No Iterations 1
DICPCG:  Solving for p_rgh, Initial residual = 0.0797586, Final residual = 0.000783922, No Iterations 62
time step continuity errors : sum local = 10.689, global = -1.05195, cumulative = -8.38274
DILUPBiCGStab:  Solving for epsilon, Initial residual = 0, Final residual = 0, No Iterations 0
DILUPBiCGStab:  Solving for k, Initial residual = 0.00177856, Final residual = 3.59361e-05, No Iterations 1
ExecutionTime = 3.46 s  ClockTime = 4 s

Time = 62

DILUPBiCGStab:  Solving for Ux, Initial residual = 0.00264617, Final residual = 0.000217656, No Iterations 1
DILUPBiCGStab:  Solving for Uy, Initial residual = 0.00438427, Final residual = 3.57938e-05, No Iterations 1
DILUPBiCGStab:  Solving for Uz, Initial residual = 0.0191656, Final residual = 0.0010449, No Iterations 1
DILUPBiCGStab:  Solving for e, Initial residual = 0.00515048, Final residual = 1.03221e-05, No Iterations 1
DICPCG:  Solving for p_rgh, Initial residual = 0.0779877, Final residual = 0.000771441, No Iterations 116
time step continuity errors : sum local = 10.432, global = -0.128262, cumulative = -8.51101
DILUPBiCGStab:  Solving for epsilon, Initial residual = 0, Final residual = 0, No Iterations 0
DILUPBiCGStab:  Solving for k, Initial residual = 0.00174729, Final residual = 3.81855e-05, No Iterations 1
ExecutionTime = 3.5 s  ClockTime = 4 s

Time = 63

DILUPBiCGStab:  Solving for Ux, Initial residual = 0.00260193, Final residual = 0.000212511, No Iterations 1
DILUPBiCGStab:  Solving for Uy, Initial residual = 0.00429966, Final residual = 3.52091e-05, No Iterations 1
DILUPBiCGStab:  Solving for Uz, Initial residual = 0.0198723, Final residual = 0.00111407, No Iterations 1
DILUPBiCGStab:  Solving for e, Initial residual = 0.00508235, Final residual = 9.2979e-06, No Iterations 1
DICPCG:  Solving for p_rgh, Initial residual = 0.0705905, Final residual = 0.00069784, No Iterations 62
time step continuity errors : sum local = 9.35057, global = 0.720414, cumulative = -7.79059
DILUPBiCGStab:  Solving for epsilon, Initial residual = 0, Final residual = 0, No Iterations 0
DILUPBiCGStab:  Solving for k, Initial residual = 0.00171498, Final residual = 4.0891e-05, No Iterations 1
ExecutionTime = 3.54 s  ClockTime = 4 s

Time = 64

DILUPBiCGStab:  Solving for Ux, Initial residual = 0.00257562, Final residual = 0.000208245, No Iterations 1
DILUPBiCGStab:  Solving for Uy, Initial residual = 0.0041858, Final residual = 3.12915e-05, No Iterations 1
DILUPBiCGStab:  Solving for Uz, Initial residual = 0.0198361, Final residual = 0.00114377, No Iterations 1
DILUPBiCGStab:  Solving for e, Initial residual = 0.00501934, Final residual = 8.41229e-06, No Iterations 1
DICPCG:  Solving for p_rgh, Initial residual = 0.0653491, Final residual = 0.000634088, No Iterations 124
time step continuity errors : sum local = 8.41487, global = 1.48126, cumulative = -6.30933
DILUPBiCGStab:  Solving for epsilon, Initial residual = 0, Final residual = 0, No Iterations 0
DILUPBiCGStab:  Solving for k, Initial residual = 0.00168519, Final residual = 4.40372e-05, No Iterations 1
ExecutionTime = 3.58 s  ClockTime = 4 s

Time = 65

DILUPBiCGStab:  Solving for Ux, Initial residual = 0.00254825, Final residual = 0.000204139, No Iterations 1
DILUPBiCGStab:  Solving for Uy, Initial residual = 0.00413543, Final residual = 3.14614e-05, No Iterations 1
DILUPBiCGStab:  Solving for Uz, Initial residual = 0.019735, Final residual = 0.00109567, No Iterations 1
DILUPBiCGStab:  Solving for e, Initial residual = 0.00495704, Final residual = 7.59111e-06, No Iterations 1
DICPCG:  Solving for p_rgh, Initial residual = 0.0661189, Final residual = 0.000612056, No Iterations 154
time step continuity errors : sum local = 8.04401, global = 0.938999, cumulative = -5.37033
DILUPBiCGStab:  Solving for epsilon, Initial residual = 0, Final residual = 0, No Iterations 0
DILUPBiCGStab:  Solving for k, Initial residual = 0.00165503, Final residual = 4.75032e-05, No Iterations 1
ExecutionTime = 3.63 s  ClockTime = 4 s

Time = 66

DILUPBiCGStab:  Solving for Ux, Initial residual = 0.00252569, Final residual = 0.000201577, No Iterations 1
DILUPBiCGStab:  Solving for Uy, Initial residual = 0.0041602, Final residual = 0.000415946, No Iterations 1
DILUPBiCGStab:  Solving for Uz, Initial residual = 0.0197667, Final residual = 0.00119559, No Iterations 1
DILUPBiCGStab:  Solving for e, Initial residual = 0.00489612, Final residual = 6.86558e-06, No Iterations 1
DICPCG:  Solving for p_rgh, Initial residual = 0.0676713, Final residual = 0.000646608, No Iterations 71
time step continuity errors : sum local = 8.43022, global = -0.0320901, cumulative = -5.40242
DILUPBiCGStab:  Solving for epsilon, Initial residual = 0, Final residual = 0, No Iterations 0
DILUPBiCGStab:  Solving for k, Initial residual = 0.00162733, Final residual = 5.16098e-05, No Iterations 1
ExecutionTime = 3.67 s  ClockTime = 4 s

Time = 67

DILUPBiCGStab:  Solving for Ux, Initial residual = 0.00252606, Final residual = 0.000200004, No Iterations 1
DILUPBiCGStab:  Solving for Uy, Initial residual = 0.00408706, Final residual = 2.99648e-05, No Iterations 1
DILUPBiCGStab:  Solving for Uz, Initial residual = 0.0198189, Final residual = 0.00112267, No Iterations 1
DILUPBiCGStab:  Solving for e, Initial residual = 0.00483693, Final residual = 6.22476e-06, No Iterations 1
DICPCG:  Solving for p_rgh, Initial residual = 0.0649291, Final residual = 0.000518681, No Iterations 183
time step continuity errors : sum local = 6.73631, global = 0.0878598, cumulative = -5.31456
DILUPBiCGStab:  Solving for epsilon, Initial residual = 0, Final residual = 0, No Iterations 0
DILUPBiCGStab:  Solving for k, Initial residual = 0.00160057, Final residual = 5.66033e-05, No Iterations 1
ExecutionTime = 3.72 s  ClockTime = 4 s

Time = 68

DILUPBiCGStab:  Solving for Ux, Initial residual = 0.00250272, Final residual = 0.000199169, No Iterations 1
DILUPBiCGStab:  Solving for Uy, Initial residual = 0.00405913, Final residual = 0.00040296, No Iterations 1
DILUPBiCGStab:  Solving for Uz, Initial residual = 0.0197285, Final residual = 0.00104921, No Iterations 1
DILUPBiCGStab:  Solving for e, Initial residual = 0.00477925, Final residual = 5.69172e-06, No Iterations 1
DICPCG:  Solving for p_rgh, Initial residual = 0.0605063, Final residual = 0.000492156, No Iterations 198
time step continuity errors : sum local = 6.51691, global = 0.0192309, cumulative = -5.29533
DILUPBiCGStab:  Solving for epsilon, Initial residual = 0, Final residual = 0, No Iterations 0
DILUPBiCGStab:  Solving for k, Initial residual = 0.00157506, Final residual = 6.20288e-05, No Iterations 1
ExecutionTime = 3.78 s  ClockTime = 4 s

Time = 69

DILUPBiCGStab:  Solving for Ux, Initial residual = 0.00248503, Final residual = 0.000198163, No Iterations 1
DILUPBiCGStab:  Solving for Uy, Initial residual = 0.00398215, Final residual = 2.838e-05, No Iterations 1
DILUPBiCGStab:  Solving for Uz, Initial residual = 0.0198053, Final residual = 0.00102813, No Iterations 1
DILUPBiCGStab:  Solving for e, Initial residual = 0.00472406, Final residual = 5.234e-06, No Iterations 1
DICPCG:  Solving for p_rgh, Initial residual = 0.0561921, Final residual = 0.000554295, No Iterations 100
time step continuity errors : sum local = 7.50185, global = -0.2582, cumulative = -5.55353
DILUPBiCGStab:  Solving for epsilon, Initial residual = 0, Final residual = 0, No Iterations 0
DILUPBiCGStab:  Solving for k, Initial residual = 0.00155003, Final residual = 6.83025e-05, No Iterations 1
ExecutionTime = 3.82 s  ClockTime = 4 s

Time = 70

DILUPBiCGStab:  Solving for Ux, Initial residual = 0.00243839, Final residual = 0.000197267, No Iterations 1
DILUPBiCGStab:  Solving for Uy, Initial residual = 0.00396769, Final residual = 0.000392342, No Iterations 1
DILUPBiCGStab:  Solving for Uz, Initial residual = 0.0197978, Final residual = 0.0010873, No Iterations 1
DILUPBiCGStab:  Solving for e, Initial residual = 0.00467069, Final residual = 4.85954e-06, No Iterations 1
DICPCG:  Solving for p_rgh, Initial residual = 0.0578194, Final residual = 0.000576474, No Iterations 45
time step continuity errors : sum local = 7.79939, global = 0.633921, cumulative = -4.91961
DILUPBiCGStab:  Solving for epsilon, Initial residual = 0, Final residual = 0, No Iterations 0
DILUPBiCGStab:  Solving for k, Initial residual = 0.00152589, Final residual = 7.50298e-05, No Iterations 1
ExecutionTime = 3.85 s  ClockTime = 4 s

Time = 71

DILUPBiCGStab:  Solving for Ux, Initial residual = 0.0024108, Final residual = 0.000193842, No Iterations 1
DILUPBiCGStab:  Solving for Uy, Initial residual = 0.00390686, Final residual = 0.00038501, No Iterations 1
DILUPBiCGStab:  Solving for Uz, Initial residual = 0.0196991, Final residual = 0.00105373, No Iterations 1
DILUPBiCGStab:  Solving for e, Initial residual = 0.00461751, Final residual = 4.52115e-06, No Iterations 1
DICPCG:  Solving for p_rgh, Initial residual = 0.0575306, Final residual = 0.000558625, No Iterations 53
time step continuity errors : sum local = 7.5182, global = 0.631681, cumulative = -4.28793
DILUPBiCGStab:  Solving for epsilon, Initial residual = 0, Final residual = 0, No Iterations 0
DILUPBiCGStab:  Solving for k, Initial residual = 0.00150256, Final residual = 8.22007e-05, No Iterations 1
ExecutionTime = 3.88 s  ClockTime = 4 s

Time = 72

DILUPBiCGStab:  Solving for Ux, Initial residual = 0.00238732, Final residual = 0.00019135, No Iterations 1
DILUPBiCGStab:  Solving for Uy, Initial residual = 0.00383967, Final residual = 0.000383064, No Iterations 1
DILUPBiCGStab:  Solving for Uz, Initial residual = 0.0196613, Final residual = 0.00105163, No Iterations 1
DILUPBiCGStab:  Solving for e, Initial residual = 0.00456589, Final residual = 4.23446e-06, No Iterations 1
DICPCG:  Solving for p_rgh, Initial residual = 0.0562034, Final residual = 0.000556277, No Iterations 130
time step continuity errors : sum local = 7.44953, global = 1.03406, cumulative = -3.25386
DILUPBiCGStab:  Solving for epsilon, Initial residual = 0, Final residual = 0, No Iterations 0
DILUPBiCGStab:  Solving for k, Initial residual = 0.00148022, Final residual = 8.98546e-05, No Iterations 1
ExecutionTime = 3.93 s  ClockTime = 4 s

Time = 73

DILUPBiCGStab:  Solving for Ux, Initial residual = 0.0023627, Final residual = 0.000189074, No Iterations 1
DILUPBiCGStab:  Solving for Uy, Initial residual = 0.00377754, Final residual = 2.69259e-05, No Iterations 1
DILUPBiCGStab:  Solving for Uz, Initial residual = 0.0197163, Final residual = 0.00110307, No Iterations 1
DILUPBiCGStab:  Solving for e, Initial residual = 0.00451605, Final residual = 3.99257e-06, No Iterations 1
DICPCG:  Solving for p_rgh, Initial residual = 0.0534195, Final residual = 0.000533738, No Iterations 57
time step continuity errors : sum local = 7.06665, global = 0.70424, cumulative = -2.54962
DILUPBiCGStab:  Solving for epsilon, Initial residual = 0, Final residual = 0, No Iterations 0
DILUPBiCGStab:  Solving for k, Initial residual = 0.00145628, Final residual = 9.76845e-05, No Iterations 1
ExecutionTime = 3.96 s  ClockTime = 4 s

Time = 74

DILUPBiCGStab:  Solving for Ux, Initial residual = 0.00230689, Final residual = 0.000186506, No Iterations 1
DILUPBiCGStab:  Solving for Uy, Initial residual = 0.00375568, Final residual = 0.000367996, No Iterations 1
DILUPBiCGStab:  Solving for Uz, Initial residual = 0.0196993, Final residual = 0.00112955, No Iterations 1
DILUPBiCGStab:  Solving for e, Initial residual = 0.00446774, Final residual = 3.77073e-06, No Iterations 1
DICPCG:  Solving for p_rgh, Initial residual = 0.0530797, Final residual = 0.000528348, No Iterations 54
time step continuity errors : sum local = 6.97198, global = 0.760491, cumulative = -1.78913
DILUPBiCGStab:  Solving for epsilon, Initial residual = 0, Final residual = 0, No Iterations 0
DILUPBiCGStab:  Solving for k, Initial residual = 0.00143294, Final residual = 0.000105205, No Iterations 1
ExecutionTime = 3.99 s  ClockTime = 4 s

Time = 75

DILUPBiCGStab:  Solving for Ux, Initial residual = 0.00227826, Final residual = 0.000183023, No Iterations 1
DILUPBiCGStab:  Solving for Uy, Initial residual = 0.00365795, Final residual = 0.000359235, No Iterations 1
DILUPBiCGStab:  Solving for Uz, Initial residual = 0.0198619, Final residual = 0.00117421, No Iterations 1
DILUPBiCGStab:  Solving for e, Initial residual = 0.00442062, Final residual = 3.5545e-06, No Iterations 1
DICPCG:  Solving for p_rgh, Initial residual = 0.0522646, Final residual = 0.000520456, No Iterations 52
time step continuity errors : sum local = 6.84933, global = 0.776372, cumulative = -1.01276
DILUPBiCGStab:  Solving for epsilon, Initial residual = 0, Final residual = 0, No Iterations 0
DILUPBiCGStab:  Solving for k, Initial residual = 0.00140998, Final residual = 0.000112252, No Iterations 1
ExecutionTime = 4.02 s  ClockTime = 4 s

Time = 76

DILUPBiCGStab:  Solving for Ux, Initial residual = 0.00227139, Final residual = 0.000179445, No Iterations 1
DILUPBiCGStab:  Solving for Uy, Initial residual = 0.0035337, Final residual = 0.00034901, No Iterations 1
DILUPBiCGStab:  Solving for Uz, Initial residual = 0.0199938, Final residual = 0.00118669, No Iterations 1
DILUPBiCGStab:  Solving for e, Initial residual = 0.00437455, Final residual = 3.35687e-06, No Iterations 1
DICPCG:  Solving for p_rgh, Initial residual = 0.0514695, Final residual = 0.000493952, No Iterations 51
time step continuity errors : sum local = 6.46941, global = 0.576325, cumulative = -0.436435
DILUPBiCGStab:  Solving for epsilon, Initial residual = 0, Final residual = 0, No Iterations 0
DILUPBiCGStab:  Solving for k, Initial residual = 0.00138662, Final residual = 0.000118452, No Iterations 1
ExecutionTime = 4.05 s  ClockTime = 4 s

Time = 77

DILUPBiCGStab:  Solving for Ux, Initial residual = 0.00226684, Final residual = 0.000176208, No Iterations 1
DILUPBiCGStab:  Solving for Uy, Initial residual = 0.00343446, Final residual = 0.00033795, No Iterations 1
DILUPBiCGStab:  Solving for Uz, Initial residual = 0.0200431, Final residual = 0.00116433, No Iterations 1
DILUPBiCGStab:  Solving for e, Initial residual = 0.00432963, Final residual = 3.17996e-06, No Iterations 1
DICPCG:  Solving for p_rgh, Initial residual = 0.0511368, Final residual = 0.000470149, No Iterations 50
time step continuity errors : sum local = 6.14173, global = 0.315765, cumulative = -0.12067
DILUPBiCGStab:  Solving for epsilon, Initial residual = 0, Final residual = 0, No Iterations 0
DILUPBiCGStab:  Solving for k, Initial residual = 0.00136374, Final residual = 0.00012348, No Iterations 1
ExecutionTime = 4.09 s  ClockTime = 4 s

Time = 78

DILUPBiCGStab:  Solving for Ux, Initial residual = 0.00225738, Final residual = 0.000173634, No Iterations 1
DILUPBiCGStab:  Solving for Uy, Initial residual = 0.00337756, Final residual = 0.000327483, No Iterations 1
DILUPBiCGStab:  Solving for Uz, Initial residual = 0.020179, Final residual = 0.00118635, No Iterations 1
DILUPBiCGStab:  Solving for e, Initial residual = 0.00428578, Final residual = 3.01945e-06, No Iterations 1
DICPCG:  Solving for p_rgh, Initial residual = 0.0509944, Final residual = 0.000461165, No Iterations 50
time step continuity errors : sum local = 6.00913, global = 0.0548019, cumulative = -0.0658682
DILUPBiCGStab:  Solving for epsilon, Initial residual = 0, Final residual = 0, No Iterations 0
DILUPBiCGStab:  Solving for k, Initial residual = 0.00134154, Final residual = 0.000126862, No Iterations 1
ExecutionTime = 4.12 s  ClockTime = 4 s

Time = 79

DILUPBiCGStab:  Solving for Ux, Initial residual = 0.00224593, Final residual = 0.000171321, No Iterations 1
DILUPBiCGStab:  Solving for Uy, Initial residual = 0.00334455, Final residual = 0.000317221, No Iterations 1
DILUPBiCGStab:  Solving for Uz, Initial residual = 0.0203672, Final residual = 0.00117178, No Iterations 1
DILUPBiCGStab:  Solving for e, Initial residual = 0.00424285, Final residual = 2.86745e-06, No Iterations 1
DICPCG:  Solving for p_rgh, Initial residual = 0.049934, Final residual = 0.000487192, No Iterations 50
time step continuity errors : sum local = 6.34177, global = -0.0754626, cumulative = -0.141331
DILUPBiCGStab:  Solving for epsilon, Initial residual = 0, Final residual = 0, No Iterations 0
DILUPBiCGStab:  Solving for k, Initial residual = 0.00131993, Final residual = 0.000128292, No Iterations 1
ExecutionTime = 4.15 s  ClockTime = 4 s

Time = 80

DILUPBiCGStab:  Solving for Ux, Initial residual = 0.00223951, Final residual = 0.000169687, No Iterations 1
DILUPBiCGStab:  Solving for Uy, Initial residual = 0.00329732, Final residual = 0.000308591, No Iterations 1
DILUPBiCGStab:  Solving for Uz, Initial residual = 0.0206053, Final residual = 0.00118448, No Iterations 1
DILUPBiCGStab:  Solving for e, Initial residual = 0.00420098, Final residual = 2.72178e-06, No Iterations 1
DICPCG:  Solving for p_rgh, Initial residual = 0.0508948, Final residual = 0.000492688, No Iterations 50
time step continuity errors : sum local = 6.4015, global = 0.0261082, cumulative = -0.115223
DILUPBiCGStab:  Solving for epsilon, Initial residual = 0, Final residual = 0, No Iterations 0
DILUPBiCGStab:  Solving for k, Initial residual = 0.0012989, Final residual = 0.000127761, No Iterations 1
ExecutionTime = 4.18 s  ClockTime = 5 s

Time = 81

DILUPBiCGStab:  Solving for Ux, Initial residual = 0.00225074, Final residual = 0.000168633, No Iterations 1
DILUPBiCGStab:  Solving for Uy, Initial residual = 0.00322134, Final residual = 0.000298645, No Iterations 1
DILUPBiCGStab:  Solving for Uz, Initial residual = 0.0212196, Final residual = 0.00118667, No Iterations 1
DILUPBiCGStab:  Solving for e, Initial residual = 0.00416011, Final residual = 2.58292e-06, No Iterations 1
DICPCG:  Solving for p_rgh, Initial residual = 0.0532303, Final residual = 0.000530161, No Iterations 80
time step continuity errors : sum local = 6.8258, global = -0.245186, cumulative = -0.360409
DILUPBiCGStab:  Solving for epsilon, Initial residual = 0, Final residual = 0, No Iterations 0
DILUPBiCGStab:  Solving for k, Initial residual = 0.0012785, Final residual = 0.000125296, No Iterations 1
ExecutionTime = 4.22 s  ClockTime = 5 s

Time = 82

DILUPBiCGStab:  Solving for Ux, Initial residual = 0.00225293, Final residual = 0.000165928, No Iterations 1
DILUPBiCGStab:  Solving for Uy, Initial residual = 0.00319026, Final residual = 0.000288185, No Iterations 1
DILUPBiCGStab:  Solving for Uz, Initial residual = 0.0209374, Final residual = 0.00113021, No Iterations 1
DILUPBiCGStab:  Solving for e, Initial residual = 0.00412158, Final residual = 2.46449e-06, No Iterations 1
DICPCG:  Solving for p_rgh, Initial residual = 0.0519018, Final residual = 0.000511426, No Iterations 98
time step continuity errors : sum local = 6.57675, global = -0.381123, cumulative = -0.741531
DILUPBiCGStab:  Solving for epsilon, Initial residual = 0, Final residual = 0, No Iterations 0
DILUPBiCGStab:  Solving for k, Initial residual = 0.00125918, Final residual = 0.000120995, No Iterations 1
ExecutionTime = 4.26 s  ClockTime = 5 s

Time = 83

DILUPBiCGStab:  Solving for Ux, Initial residual = 0.00225461, Final residual = 0.000163918, No Iterations 1
DILUPBiCGStab:  Solving for Uy, Initial residual = 0.00316971, Final residual = 0.000280309, No Iterations 1
DILUPBiCGStab:  Solving for Uz, Initial residual = 0.0208991, Final residual = 0.00112165, No Iterations 1
DILUPBiCGStab:  Solving for e, Initial residual = 0.00408236, Final residual = 2.34359e-06, No Iterations 1
DICPCG:  Solving for p_rgh, Initial residual = 0.0504224, Final residual = 0.000462461, No Iterations 46
time step continuity errors : sum local = 5.93468, global = -0.698064, cumulative = -1.4396
DILUPBiCGStab:  Solving for epsilon, Initial residual = 0, Final residual = 0, No Iterations 0
DILUPBiCGStab:  Solving for k, Initial residual = 0.00124071, Final residual = 0.000115188, No Iterations 1
ExecutionTime = 4.29 s  ClockTime = 5 s

Time = 84

DILUPBiCGStab:  Solving for Ux, Initial residual = 0.00225509, Final residual = 0.00016221, No Iterations 1
DILUPBiCGStab:  Solving for Uy, Initial residual = 0.00313615, Final residual = 0.000271849, No Iterations 1
DILUPBiCGStab:  Solving for Uz, Initial residual = 0.0208416, Final residual = 0.00111638, No Iterations 1
DILUPBiCGStab:  Solving for e, Initial residual = 0.00404397, Final residual = 2.22231e-06, No Iterations 1
DICPCG:  Solving for p_rgh, Initial residual = 0.0493723, Final residual = 0.000487516, No Iterations 65
time step continuity errors : sum local = 6.24278, global = -0.510525, cumulative = -1.95012
DILUPBiCGStab:  Solving for epsilon, Initial residual = 0, Final residual = 0, No Iterations 0
DILUPBiCGStab:  Solving for k, Initial residual = 0.00122405, Final residual = 0.000108211, No Iterations 1
ExecutionTime = 4.33 s  ClockTime = 5 s

Time = 85

DILUPBiCGStab:  Solving for Ux, Initial residual = 0.00226731, Final residual = 0.000161185, No Iterations 1
DILUPBiCGStab:  Solving for Uy, Initial residual = 0.0030778, Final residual = 0.000261314, No Iterations 1
DILUPBiCGStab:  Solving for Uz, Initial residual = 0.0212658, Final residual = 0.00121893, No Iterations 1
DILUPBiCGStab:  Solving for e, Initial residual = 0.00400643, Final residual = 2.10986e-06, No Iterations 1
DICPCG:  Solving for p_rgh, Initial residual = 0.0481008, Final residual = 0.000445546, No Iterations 177
time step continuity errors : sum local = 5.69594, global = -0.537542, cumulative = -2.48766
DILUPBiCGStab:  Solving for epsilon, Initial residual = 0, Final residual = 0, No Iterations 0
DILUPBiCGStab:  Solving for k, Initial residual = 0.00120872, Final residual = 0.000100521, No Iterations 1
ExecutionTime = 4.38 s  ClockTime = 5 s

Time = 86

DILUPBiCGStab:  Solving for Ux, Initial residual = 0.00228747, Final residual = 0.000161012, No Iterations 1
DILUPBiCGStab:  Solving for Uy, Initial residual = 0.00303628, Final residual = 0.000253416, No Iterations 1
DILUPBiCGStab:  Solving for Uz, Initial residual = 0.0213467, Final residual = 0.00120392, No Iterations 1
DILUPBiCGStab:  Solving for e, Initial residual = 0.00397101, Final residual = 2.00276e-06, No Iterations 1
DICPCG:  Solving for p_rgh, Initial residual = 0.0461453, Final residual = 0.000453613, No Iterations 73
time step continuity errors : sum local = 5.8464, global = -0.48683, cumulative = -2.97449
DILUPBiCGStab:  Solving for epsilon, Initial residual = 0, Final residual = 0, No Iterations 0
DILUPBiCGStab:  Solving for k, Initial residual = 0.00119368, Final residual = 9.23928e-05, No Iterations 1
ExecutionTime = 4.42 s  ClockTime = 5 s

Time = 87

DILUPBiCGStab:  Solving for Ux, Initial residual = 0.00229984, Final residual = 0.000159562, No Iterations 1
DILUPBiCGStab:  Solving for Uy, Initial residual = 0.00299748, Final residual = 0.000244008, No Iterations 1
DILUPBiCGStab:  Solving for Uz, Initial residual = 0.0213419, Final residual = 0.00107965, No Iterations 1
DILUPBiCGStab:  Solving for e, Initial residual = 0.00393659, Final residual = 1.91701e-06, No Iterations 1
DICPCG:  Solving for p_rgh, Initial residual = 0.0449976, Final residual = 0.000436133, No Iterations 101
time step continuity errors : sum local = 5.61056, global = 0.210892, cumulative = -2.7636
DILUPBiCGStab:  Solving for epsilon, Initial residual = 0, Final residual = 0, No Iterations 0
DILUPBiCGStab:  Solving for k, Initial residual = 0.00117978, Final residual = 8.41706e-05, No Iterations 1
ExecutionTime = 4.46 s  ClockTime = 5 s

Time = 88

DILUPBiCGStab:  Solving for Ux, Initial residual = 0.00229, Final residual = 0.000157029, No Iterations 1
DILUPBiCGStab:  Solving for Uy, Initial residual = 0.00294384, Final residual = 0.000235082, No Iterations 1
DILUPBiCGStab:  Solving for Uz, Initial residual = 0.0209463, Final residual = 0.00106996, No Iterations 1
DILUPBiCGStab:  Solving for e, Initial residual = 0.00390248, Final residual = 1.83265e-06, No Iterations 1
DICPCG:  Solving for p_rgh, Initial residual = 0.0438058, Final residual = 0.000422958, No Iterations 113
time step continuity errors : sum local = 5.43717, global = 0.5922, cumulative = -2.1714
DILUPBiCGStab:  Solving for epsilon, Initial residual = 0, Final residual = 0, No Iterations 0
DILUPBiCGStab:  Solving for k, Initial residual = 0.00116601, Final residual = 7.62893e-05, No Iterations 1
[...]
ExecutionTime = 38.71 s  ClockTime = 40 s

Time = 979

DILUPBiCGStab:  Solving for Ux, Initial residual = 1.24452e-09, Final residual = 1.24452e-09, No Iterations 0
DILUPBiCGStab:  Solving for Uy, Initial residual = 2.52333e-09, Final residual = 2.52333e-09, No Iterations 0
DILUPBiCGStab:  Solving for Uz, Initial residual = 0.000568549, Final residual = 2.81211e-06, No Iterations 1
DILUPBiCGStab:  Solving for e, Initial residual = 9.15842e-06, Final residual = 9.15842e-06, No Iterations 0
DICPCG:  Solving for p_rgh, Initial residual = 9.50106e-09, Final residual = 9.50106e-09, No Iterations 0
time step continuity errors : sum local = 0.000107176, global = 3.68079e-06, cumulative = -3.18751
DILUPBiCGStab:  Solving for epsilon, Initial residual = 0, Final residual = 0, No Iterations 0
DILUPBiCGStab:  Solving for k, Initial residual = 9.75455e-06, Final residual = 9.75455e-06, No Iterations 0
ExecutionTime = 38.73 s  ClockTime = 40 s

Time = 980

DILUPBiCGStab:  Solving for Ux, Initial residual = 1.23831e-09, Final residual = 1.23831e-09, No Iterations 0
DILUPBiCGStab:  Solving for Uy, Initial residual = 2.5282e-09, Final residual = 2.5282e-09, No Iterations 0
DILUPBiCGStab:  Solving for Uz, Initial residual = 0.000566804, Final residual = 2.69726e-06, No Iterations 1
DILUPBiCGStab:  Solving for e, Initial residual = 9.15843e-06, Final residual = 9.15843e-06, No Iterations 0
DICPCG:  Solving for p_rgh, Initial residual = 1.13742e-08, Final residual = 9.78103e-09, No Iterations 5
time step continuity errors : sum local = 0.000110334, global = -9.03339e-07, cumulative = -3.18751
DILUPBiCGStab:  Solving for epsilon, Initial residual = 0, Final residual = 0, No Iterations 0
DILUPBiCGStab:  Solving for k, Initial residual = 9.75456e-06, Final residual = 9.75456e-06, No Iterations 0
ExecutionTime = 38.75 s  ClockTime = 40 s

Time = 981

DILUPBiCGStab:  Solving for Ux, Initial residual = 1.25398e-09, Final residual = 1.25398e-09, No Iterations 0
DILUPBiCGStab:  Solving for Uy, Initial residual = 2.4633e-09, Final residual = 2.4633e-09, No Iterations 0
DILUPBiCGStab:  Solving for Uz, Initial residual = 0.000564984, Final residual = 2.79812e-06, No Iterations 1
DILUPBiCGStab:  Solving for e, Initial residual = 9.15842e-06, Final residual = 9.15842e-06, No Iterations 0
DICPCG:  Solving for p_rgh, Initial residual = 9.76867e-09, Final residual = 9.76867e-09, No Iterations 0
time step continuity errors : sum local = 0.000110194, global = -6.80088e-06, cumulative = -3.18751
DILUPBiCGStab:  Solving for epsilon, Initial residual = 0, Final residual = 0, No Iterations 0
DILUPBiCGStab:  Solving for k, Initial residual = 9.75456e-06, Final residual = 9.75456e-06, No Iterations 0
ExecutionTime = 38.78 s  ClockTime = 40 s

Time = 982

DILUPBiCGStab:  Solving for Ux, Initial residual = 1.24722e-09, Final residual = 1.24722e-09, No Iterations 0
DILUPBiCGStab:  Solving for Uy, Initial residual = 2.46932e-09, Final residual = 2.46932e-09, No Iterations 0
DILUPBiCGStab:  Solving for Uz, Initial residual = 0.00055919, Final residual = 2.86598e-06, No Iterations 1
DILUPBiCGStab:  Solving for e, Initial residual = 9.15843e-06, Final residual = 9.15843e-06, No Iterations 0
DICPCG:  Solving for p_rgh, Initial residual = 1.16271e-08, Final residual = 8.50617e-09, No Iterations 11
time step continuity errors : sum local = 9.5953e-05, global = -8.1023e-06, cumulative = -3.18752
DILUPBiCGStab:  Solving for epsilon, Initial residual = 0, Final residual = 0, No Iterations 0
DILUPBiCGStab:  Solving for k, Initial residual = 9.75455e-06, Final residual = 9.75455e-06, No Iterations 0
ExecutionTime = 38.8 s  ClockTime = 40 s

Time = 983

DILUPBiCGStab:  Solving for Ux, Initial residual = 1.27653e-09, Final residual = 1.27653e-09, No Iterations 0
DILUPBiCGStab:  Solving for Uy, Initial residual = 2.38506e-09, Final residual = 2.38506e-09, No Iterations 0
DILUPBiCGStab:  Solving for Uz, Initial residual = 0.000569661, Final residual = 2.86022e-06, No Iterations 1
DILUPBiCGStab:  Solving for e, Initial residual = 9.15849e-06, Final residual = 9.15849e-06, No Iterations 0
DICPCG:  Solving for p_rgh, Initial residual = 9.61265e-09, Final residual = 9.61265e-09, No Iterations 0
time step continuity errors : sum local = 0.000108435, global = -1.49352e-05, cumulative = -3.18754
DILUPBiCGStab:  Solving for epsilon, Initial residual = 0, Final residual = 0, No Iterations 0
DILUPBiCGStab:  Solving for k, Initial residual = 9.75456e-06, Final residual = 9.75456e-06, No Iterations 0
ExecutionTime = 38.82 s  ClockTime = 40 s

Time = 984

DILUPBiCGStab:  Solving for Ux, Initial residual = 1.27185e-09, Final residual = 1.27185e-09, No Iterations 0
DILUPBiCGStab:  Solving for Uy, Initial residual = 2.39265e-09, Final residual = 2.39265e-09, No Iterations 0
DILUPBiCGStab:  Solving for Uz, Initial residual = 0.000571836, Final residual = 2.97231e-06, No Iterations 1
DILUPBiCGStab:  Solving for e, Initial residual = 9.15843e-06, Final residual = 9.15843e-06, No Iterations 0
DICPCG:  Solving for p_rgh, Initial residual = 1.16834e-08, Final residual = 8.36774e-09, No Iterations 5
time step continuity errors : sum local = 9.43915e-05, global = -1.81059e-05, cumulative = -3.18756
DILUPBiCGStab:  Solving for epsilon, Initial residual = 0, Final residual = 0, No Iterations 0
DILUPBiCGStab:  Solving for k, Initial residual = 9.75455e-06, Final residual = 9.75455e-06, No Iterations 0
ExecutionTime = 38.84 s  ClockTime = 40 s

Time = 985

DILUPBiCGStab:  Solving for Ux, Initial residual = 1.26839e-09, Final residual = 1.26839e-09, No Iterations 0
DILUPBiCGStab:  Solving for Uy, Initial residual = 2.33219e-09, Final residual = 2.33219e-09, No Iterations 0
DILUPBiCGStab:  Solving for Uz, Initial residual = 0.000565997, Final residual = 2.79543e-06, No Iterations 1
DILUPBiCGStab:  Solving for e, Initial residual = 9.15842e-06, Final residual = 9.15842e-06, No Iterations 0
DICPCG:  Solving for p_rgh, Initial residual = 9.59598e-09, Final residual = 9.59598e-09, No Iterations 0
time step continuity errors : sum local = 0.000108246, global = -2.24961e-05, cumulative = -3.18758
DILUPBiCGStab:  Solving for epsilon, Initial residual = 0, Final residual = 0, No Iterations 0
DILUPBiCGStab:  Solving for k, Initial residual = 9.75455e-06, Final residual = 9.75455e-06, No Iterations 0
ExecutionTime = 38.87 s  ClockTime = 40 s

Time = 986

DILUPBiCGStab:  Solving for Ux, Initial residual = 1.26408e-09, Final residual = 1.26408e-09, No Iterations 0
DILUPBiCGStab:  Solving for Uy, Initial residual = 2.33785e-09, Final residual = 2.33785e-09, No Iterations 0
DILUPBiCGStab:  Solving for Uz, Initial residual = 0.000570116, Final residual = 2.88058e-06, No Iterations 1
DILUPBiCGStab:  Solving for e, Initial residual = 9.15842e-06, Final residual = 9.15842e-06, No Iterations 0
DICPCG:  Solving for p_rgh, Initial residual = 1.12643e-08, Final residual = 9.98928e-09, No Iterations 2
time step continuity errors : sum local = 0.000112683, global = -2.62848e-05, cumulative = -3.1876
DILUPBiCGStab:  Solving for epsilon, Initial residual = 0, Final residual = 0, No Iterations 0
DILUPBiCGStab:  Solving for k, Initial residual = 9.75455e-06, Final residual = 9.75455e-06, No Iterations 0
ExecutionTime = 38.89 s  ClockTime = 40 s

Time = 987

DILUPBiCGStab:  Solving for Ux, Initial residual = 1.26076e-09, Final residual = 1.26076e-09, No Iterations 0
DILUPBiCGStab:  Solving for Uy, Initial residual = 2.32745e-09, Final residual = 2.32745e-09, No Iterations 0
DILUPBiCGStab:  Solving for Uz, Initial residual = 0.000560021, Final residual = 2.72488e-06, No Iterations 1
DILUPBiCGStab:  Solving for e, Initial residual = 9.15841e-06, Final residual = 9.15841e-06, No Iterations 0
DICPCG:  Solving for p_rgh, Initial residual = 9.92181e-09, Final residual = 9.92181e-09, No Iterations 0
time step continuity errors : sum local = 0.000111922, global = -3.01007e-05, cumulative = -3.18763
DILUPBiCGStab:  Solving for epsilon, Initial residual = 0, Final residual = 0, No Iterations 0
DILUPBiCGStab:  Solving for k, Initial residual = 9.75455e-06, Final residual = 9.75455e-06, No Iterations 0
ExecutionTime = 38.91 s  ClockTime = 40 s

Time = 988

DILUPBiCGStab:  Solving for Ux, Initial residual = 1.25653e-09, Final residual = 1.25653e-09, No Iterations 0
DILUPBiCGStab:  Solving for Uy, Initial residual = 2.3337e-09, Final residual = 2.3337e-09, No Iterations 0
DILUPBiCGStab:  Solving for Uz, Initial residual = 0.000564857, Final residual = 2.92636e-06, No Iterations 1
DILUPBiCGStab:  Solving for e, Initial residual = 9.15842e-06, Final residual = 9.15842e-06, No Iterations 0
DICPCG:  Solving for p_rgh, Initial residual = 1.19698e-08, Final residual = 9.78495e-09, No Iterations 163
time step continuity errors : sum local = 0.000110378, global = 1.15073e-06, cumulative = -3.18763
DILUPBiCGStab:  Solving for epsilon, Initial residual = 0, Final residual = 0, No Iterations 0
DILUPBiCGStab:  Solving for k, Initial residual = 9.75454e-06, Final residual = 9.75454e-06, No Iterations 0
ExecutionTime = 38.96 s  ClockTime = 40 s

Time = 989

DILUPBiCGStab:  Solving for Ux, Initial residual = 1.7964e-09, Final residual = 1.7964e-09, No Iterations 0
DILUPBiCGStab:  Solving for Uy, Initial residual = 3.68858e-09, Final residual = 3.68858e-09, No Iterations 0
DILUPBiCGStab:  Solving for Uz, Initial residual = 0.000549609, Final residual = 2.83564e-06, No Iterations 1
DILUPBiCGStab:  Solving for e, Initial residual = 9.16071e-06, Final residual = 9.16071e-06, No Iterations 0
DICPCG:  Solving for p_rgh, Initial residual = 8.61062e-09, Final residual = 8.61062e-09, No Iterations 0
time step continuity errors : sum local = 9.71313e-05, global = -1.68107e-05, cumulative = -3.18765
DILUPBiCGStab:  Solving for epsilon, Initial residual = 0, Final residual = 0, No Iterations 0
DILUPBiCGStab:  Solving for k, Initial residual = 9.75454e-06, Final residual = 9.75454e-06, No Iterations 0
ExecutionTime = 38.99 s  ClockTime = 40 s

Time = 990

DILUPBiCGStab:  Solving for Ux, Initial residual = 1.79275e-09, Final residual = 1.79275e-09, No Iterations 0
DILUPBiCGStab:  Solving for Uy, Initial residual = 3.66866e-09, Final residual = 3.66866e-09, No Iterations 0
DILUPBiCGStab:  Solving for Uz, Initial residual = 0.000560561, Final residual = 2.65842e-06, No Iterations 1
DILUPBiCGStab:  Solving for e, Initial residual = 9.15869e-06, Final residual = 9.15869e-06, No Iterations 0
DICPCG:  Solving for p_rgh, Initial residual = 1.04366e-08, Final residual = 9.01718e-09, No Iterations 2
time step continuity errors : sum local = 0.000101717, global = -1.09204e-05, cumulative = -3.18766
DILUPBiCGStab:  Solving for epsilon, Initial residual = 0, Final residual = 0, No Iterations 0
DILUPBiCGStab:  Solving for k, Initial residual = 9.75454e-06, Final residual = 9.75454e-06, No Iterations 0
ExecutionTime = 39.01 s  ClockTime = 40 s

Time = 991

DILUPBiCGStab:  Solving for Ux, Initial residual = 1.78472e-09, Final residual = 1.78472e-09, No Iterations 0
DILUPBiCGStab:  Solving for Uy, Initial residual = 3.65481e-09, Final residual = 3.65481e-09, No Iterations 0
DILUPBiCGStab:  Solving for Uz, Initial residual = 0.000556463, Final residual = 2.73217e-06, No Iterations 1
DILUPBiCGStab:  Solving for e, Initial residual = 9.15869e-06, Final residual = 9.15869e-06, No Iterations 0
DICPCG:  Solving for p_rgh, Initial residual = 8.31607e-09, Final residual = 8.31607e-09, No Iterations 0
time step continuity errors : sum local = 9.38086e-05, global = -4.00517e-06, cumulative = -3.18766
DILUPBiCGStab:  Solving for epsilon, Initial residual = 0, Final residual = 0, No Iterations 0
DILUPBiCGStab:  Solving for k, Initial residual = 9.75454e-06, Final residual = 9.75454e-06, No Iterations 0
ExecutionTime = 39.03 s  ClockTime = 40 s

Time = 992

DILUPBiCGStab:  Solving for Ux, Initial residual = 1.77795e-09, Final residual = 1.77795e-09, No Iterations 0
DILUPBiCGStab:  Solving for Uy, Initial residual = 3.66034e-09, Final residual = 3.66034e-09, No Iterations 0
DILUPBiCGStab:  Solving for Uz, Initial residual = 0.000566933, Final residual = 2.7183e-06, No Iterations 1
DILUPBiCGStab:  Solving for e, Initial residual = 9.15869e-06, Final residual = 9.15869e-06, No Iterations 0
DICPCG:  Solving for p_rgh, Initial residual = 9.46343e-09, Final residual = 9.46343e-09, No Iterations 0
time step continuity errors : sum local = 0.000106751, global = 2.45317e-06, cumulative = -3.18766
DILUPBiCGStab:  Solving for epsilon, Initial residual = 0, Final residual = 0, No Iterations 0
DILUPBiCGStab:  Solving for k, Initial residual = 9.75454e-06, Final residual = 9.75454e-06, No Iterations 0
ExecutionTime = 39.06 s  ClockTime = 40 s

Time = 993

DILUPBiCGStab:  Solving for Ux, Initial residual = 1.77114e-09, Final residual = 1.77114e-09, No Iterations 0
DILUPBiCGStab:  Solving for Uy, Initial residual = 3.66574e-09, Final residual = 3.66574e-09, No Iterations 0
DILUPBiCGStab:  Solving for Uz, Initial residual = 0.000559867, Final residual = 2.70055e-06, No Iterations 1
DILUPBiCGStab:  Solving for e, Initial residual = 9.15868e-06, Final residual = 9.15868e-06, No Iterations 0
DICPCG:  Solving for p_rgh, Initial residual = 1.13908e-08, Final residual = 8.95009e-09, No Iterations 13
time step continuity errors : sum local = 0.000100961, global = 2.42939e-06, cumulative = -3.18766
DILUPBiCGStab:  Solving for epsilon, Initial residual = 0, Final residual = 0, No Iterations 0
DILUPBiCGStab:  Solving for k, Initial residual = 9.75455e-06, Final residual = 9.75455e-06, No Iterations 0
ExecutionTime = 39.08 s  ClockTime = 40 s

Time = 994

DILUPBiCGStab:  Solving for Ux, Initial residual = 1.78503e-09, Final residual = 1.78503e-09, No Iterations 0
DILUPBiCGStab:  Solving for Uy, Initial residual = 3.54989e-09, Final residual = 3.54989e-09, No Iterations 0
DILUPBiCGStab:  Solving for Uz, Initial residual = 0.000551899, Final residual = 2.61598e-06, No Iterations 1
DILUPBiCGStab:  Solving for e, Initial residual = 9.15874e-06, Final residual = 9.15874e-06, No Iterations 0
DICPCG:  Solving for p_rgh, Initial residual = 9.68816e-09, Final residual = 9.68816e-09, No Iterations 0
time step continuity errors : sum local = 0.000109286, global = 1.15531e-05, cumulative = -3.18765
DILUPBiCGStab:  Solving for epsilon, Initial residual = 0, Final residual = 0, No Iterations 0
DILUPBiCGStab:  Solving for k, Initial residual = 9.75454e-06, Final residual = 9.75454e-06, No Iterations 0
ExecutionTime = 39.1 s  ClockTime = 40 s

Time = 995

DILUPBiCGStab:  Solving for Ux, Initial residual = 1.78072e-09, Final residual = 1.78072e-09, No Iterations 0
DILUPBiCGStab:  Solving for Uy, Initial residual = 3.55701e-09, Final residual = 3.55701e-09, No Iterations 0
DILUPBiCGStab:  Solving for Uz, Initial residual = 0.000559063, Final residual = 2.8193e-06, No Iterations 1
DILUPBiCGStab:  Solving for e, Initial residual = 9.15868e-06, Final residual = 9.15868e-06, No Iterations 0
DICPCG:  Solving for p_rgh, Initial residual = 1.2245e-08, Final residual = 9.90644e-09, No Iterations 166
time step continuity errors : sum local = 0.000111749, global = -3.72116e-07, cumulative = -3.18765
DILUPBiCGStab:  Solving for epsilon, Initial residual = 0, Final residual = 0, No Iterations 0
DILUPBiCGStab:  Solving for k, Initial residual = 9.75455e-06, Final residual = 9.75455e-06, No Iterations 0
ExecutionTime = 39.15 s  ClockTime = 40 s

Time = 996

DILUPBiCGStab:  Solving for Ux, Initial residual = 5.3451e-10, Final residual = 5.3451e-10, No Iterations 0
DILUPBiCGStab:  Solving for Uy, Initial residual = 7.98701e-10, Final residual = 7.98701e-10, No Iterations 0
DILUPBiCGStab:  Solving for Uz, Initial residual = 0.000557372, Final residual = 2.71852e-06, No Iterations 1
DILUPBiCGStab:  Solving for e, Initial residual = 9.1588e-06, Final residual = 9.1588e-06, No Iterations 0
DICPCG:  Solving for p_rgh, Initial residual = 9.87057e-09, Final residual = 9.87057e-09, No Iterations 0
time step continuity errors : sum local = 0.000111344, global = 1.0816e-05, cumulative = -3.18764
DILUPBiCGStab:  Solving for epsilon, Initial residual = 0, Final residual = 0, No Iterations 0
DILUPBiCGStab:  Solving for k, Initial residual = 9.75455e-06, Final residual = 9.75455e-06, No Iterations 0
ExecutionTime = 39.18 s  ClockTime = 40 s

Time = 997

DILUPBiCGStab:  Solving for Ux, Initial residual = 5.23606e-10, Final residual = 5.23606e-10, No Iterations 0
DILUPBiCGStab:  Solving for Uy, Initial residual = 8.24482e-10, Final residual = 8.24482e-10, No Iterations 0
DILUPBiCGStab:  Solving for Uz, Initial residual = 0.000554297, Final residual = 2.79904e-06, No Iterations 1
DILUPBiCGStab:  Solving for e, Initial residual = 9.15848e-06, Final residual = 9.15848e-06, No Iterations 0
DICPCG:  Solving for p_rgh, Initial residual = 1.17641e-08, Final residual = 9.92341e-09, No Iterations 11
time step continuity errors : sum local = 0.00011194, global = 1.38913e-05, cumulative = -3.18762
DILUPBiCGStab:  Solving for epsilon, Initial residual = 0, Final residual = 0, No Iterations 0
DILUPBiCGStab:  Solving for k, Initial residual = 9.75456e-06, Final residual = 9.75456e-06, No Iterations 0
ExecutionTime = 39.2 s  ClockTime = 40 s

Time = 998

DILUPBiCGStab:  Solving for Ux, Initial residual = 5.48034e-10, Final residual = 5.48034e-10, No Iterations 0
DILUPBiCGStab:  Solving for Uy, Initial residual = 6.63258e-10, Final residual = 6.63258e-10, No Iterations 0
DILUPBiCGStab:  Solving for Uz, Initial residual = 0.000563847, Final residual = 2.63087e-06, No Iterations 1
DILUPBiCGStab:  Solving for e, Initial residual = 9.15855e-06, Final residual = 9.15855e-06, No Iterations 0
DICPCG:  Solving for p_rgh, Initial residual = 9.71017e-09, Final residual = 9.71017e-09, No Iterations 0
time step continuity errors : sum local = 0.000109535, global = 1.21418e-05, cumulative = -3.18761
DILUPBiCGStab:  Solving for epsilon, Initial residual = 0, Final residual = 0, No Iterations 0
DILUPBiCGStab:  Solving for k, Initial residual = 9.75455e-06, Final residual = 9.75455e-06, No Iterations 0
ExecutionTime = 39.22 s  ClockTime = 40 s

Time = 999

DILUPBiCGStab:  Solving for Ux, Initial residual = 5.47621e-10, Final residual = 5.47621e-10, No Iterations 0
DILUPBiCGStab:  Solving for Uy, Initial residual = 6.60955e-10, Final residual = 6.60955e-10, No Iterations 0
DILUPBiCGStab:  Solving for Uz, Initial residual = 0.000559999, Final residual = 2.76229e-06, No Iterations 1
DILUPBiCGStab:  Solving for e, Initial residual = 9.15849e-06, Final residual = 9.15849e-06, No Iterations 0
DICPCG:  Solving for p_rgh, Initial residual = 1.12739e-08, Final residual = 8.36954e-09, No Iterations 13
time step continuity errors : sum local = 9.44118e-05, global = 1.43708e-05, cumulative = -3.1876
DILUPBiCGStab:  Solving for epsilon, Initial residual = 0, Final residual = 0, No Iterations 0
DILUPBiCGStab:  Solving for k, Initial residual = 9.75455e-06, Final residual = 9.75455e-06, No Iterations 0
ExecutionTime = 39.25 s  ClockTime = 40 s

Time = 1000

DILUPBiCGStab:  Solving for Ux, Initial residual = 4.64949e-10, Final residual = 4.64949e-10, No Iterations 0
DILUPBiCGStab:  Solving for Uy, Initial residual = 6.12871e-10, Final residual = 6.12871e-10, No Iterations 0
DILUPBiCGStab:  Solving for Uz, Initial residual = 0.000557883, Final residual = 2.67072e-06, No Iterations 1
DILUPBiCGStab:  Solving for e, Initial residual = 9.15857e-06, Final residual = 9.15857e-06, No Iterations 0
DICPCG:  Solving for p_rgh, Initial residual = 8.98949e-09, Final residual = 8.98949e-09, No Iterations 0
time step continuity errors : sum local = 0.000101405, global = 1.43288e-05, cumulative = -3.18758
DILUPBiCGStab:  Solving for epsilon, Initial residual = 0, Final residual = 0, No Iterations 0
DILUPBiCGStab:  Solving for k, Initial residual = 9.75456e-06, Final residual = 9.75456e-06, No Iterations 0
ExecutionTime = 39.4 s  ClockTime = 40 s

End

