/*---------------------------------------------------------------------------*\
  =========                 |
  \\      /  F ield         | OpenFOAM: The Open Source CFD Toolbox
   \\    /   O peration     | Website:  https://openfoam.org
    \\  /    A nd           | Version:  8
     \\/     M anipulation  |
\*---------------------------------------------------------------------------*/
Build  : 8-1c9b5879390b
Exec   : buoyantSimpleFoam
Date   : Jan 27 2025
Time   : 14:49:17
Host   : "658dd9edf29b"
PID    : 876
I/O    : uncollated
Case   : /home/openfoam/run/180bentPipe/Re20000/q-1000
nProcs : 1
sigFpe : Enabling floating point exception trapping (FOAM_SIGFPE).
fileModificationChecking : Monitoring run-time modified files using timeStampMaster (fileModificationSkew 10)
allowSystemOperations : Allowing user-supplied system call operations

// * * * * * * * * * * * * * * * * * * * * * * * * * * * * * * * * * * * * * //
Create time

Create mesh for time = 0


SIMPLE: Convergence criteria found
        p_rgh: tolerance 0.01
        U: tolerance 0.0001
        e: tolerance 0.01
        "(k|epsilon|omega)": tolerance 0.001

Reading thermophysical properties

Selecting thermodynamics package 
{
    type            heRhoThermo;
    mixture         pureMixture;
    transport       const;
    thermo          eConst;
    equationOfState Boussinesq;
    specie          specie;
    energy          sensibleInternalEnergy;
}

Reading field U

Reading/calculating face flux field phi

Creating turbulence model

Selecting turbulence model type RAS
Selecting RAS turbulence model kEpsilon
RAS
{
    RASModel        kEpsilon;
    turbulence      on;
    printCoeffs     on;
    Cmu             0.09;
    C1              1.44;
    C2              1.92;
    C3              0;
    sigmak          1;
    sigmaEps        1.3;
}

Creating thermophysical transport model

Selecting thermophysical transport type RAS
Selecting default RAS thermophysical transport model eddyDiffusivity

Reading g

Reading hRef
Calculating field g.h


Reading pRef
Reading field p_rgh

--> FOAM Warning : 
    From function const Foam::HashTable<Foam::List<int>, Foam::word>& Foam::polyBoundaryMesh::groupPatchIDs() const
    in file meshes/polyMesh/polyBoundaryMesh/polyBoundaryMesh.C at line 473
    Removing patchGroup 'wall' which clashes with patch 0 of the same name.
No MRF models present

Radiation model not active: radiationProperties not found
Selecting radiationModel none
No finite volume options present

Starting time loop

Time = 1

DILUPBiCGStab:  Solving for Ux, Initial residual = 1, Final residual = 0.0797606, No Iterations 1
DILUPBiCGStab:  Solving for Uy, Initial residual = 1, Final residual = 0.0312961, No Iterations 1
DILUPBiCGStab:  Solving for Uz, Initial residual = 1, Final residual = 0.0675917, No Iterations 1
DILUPBiCGStab:  Solving for e, Initial residual = 1, Final residual = 0.000426061, No Iterations 1
DICPCG:  Solving for p_rgh, Initial residual = 0.999202, Final residual = 0.0070661, No Iterations 198
time step continuity errors : sum local = 569.775, global = -0.698154, cumulative = -0.698154
DILUPBiCGStab:  Solving for epsilon, Initial residual = 0, Final residual = 0, No Iterations 0
DILUPBiCGStab:  Solving for k, Initial residual = 1, Final residual = 0.0560581, No Iterations 1
ExecutionTime = 0.26 s  ClockTime = 1 s

Time = 2

DILUPBiCGStab:  Solving for Ux, Initial residual = 0.0283234, Final residual = 0.00046218, No Iterations 1
DILUPBiCGStab:  Solving for Uy, Initial residual = 0.138945, Final residual = 0.000516716, No Iterations 1
DILUPBiCGStab:  Solving for Uz, Initial residual = 0.609792, Final residual = 0.0114574, No Iterations 1
DILUPBiCGStab:  Solving for e, Initial residual = 0.200971, Final residual = 6.86181e-06, No Iterations 1
DICPCG:  Solving for p_rgh, Initial residual = 0.054466, Final residual = 0.000466299, No Iterations 182
time step continuity errors : sum local = 880.966, global = -1.62291, cumulative = -2.32106
DILUPBiCGStab:  Solving for epsilon, Initial residual = 0, Final residual = 0, No Iterations 0
DILUPBiCGStab:  Solving for k, Initial residual = 0.152706, Final residual = 1.78321e-05, No Iterations 1
ExecutionTime = 0.31 s  ClockTime = 1 s

Time = 3

DILUPBiCGStab:  Solving for Ux, Initial residual = 0.251036, Final residual = 0.00279375, No Iterations 1
DILUPBiCGStab:  Solving for Uy, Initial residual = 0.248973, Final residual = 0.00518435, No Iterations 1
DILUPBiCGStab:  Solving for Uz, Initial residual = 0.474585, Final residual = 0.00256722, No Iterations 1
DILUPBiCGStab:  Solving for e, Initial residual = 0.172928, Final residual = 0.000676721, No Iterations 1
DICPCG:  Solving for p_rgh, Initial residual = 0.127434, Final residual = 0.00118079, No Iterations 188
time step continuity errors : sum local = 1248.77, global = 2.04577, cumulative = -0.275289
DILUPBiCGStab:  Solving for epsilon, Initial residual = 0, Final residual = 0, No Iterations 0
DILUPBiCGStab:  Solving for k, Initial residual = 0.130135, Final residual = 0.00286715, No Iterations 1
ExecutionTime = 0.37 s  ClockTime = 1 s

Time = 4

DILUPBiCGStab:  Solving for Ux, Initial residual = 0.205954, Final residual = 0.00331649, No Iterations 1
DILUPBiCGStab:  Solving for Uy, Initial residual = 0.225336, Final residual = 0.00478577, No Iterations 1
DILUPBiCGStab:  Solving for Uz, Initial residual = 0.268008, Final residual = 0.00482324, No Iterations 1
DILUPBiCGStab:  Solving for e, Initial residual = 0.269269, Final residual = 0.0022208, No Iterations 1
DICPCG:  Solving for p_rgh, Initial residual = 0.131121, Final residual = 0.00120206, No Iterations 196
time step continuity errors : sum local = 908.476, global = 4.85243, cumulative = 4.57714
DILUPBiCGStab:  Solving for epsilon, Initial residual = 0, Final residual = 0, No Iterations 0
DILUPBiCGStab:  Solving for k, Initial residual = 0.0789627, Final residual = 0.00347565, No Iterations 1
ExecutionTime = 0.43 s  ClockTime = 1 s

Time = 5

DILUPBiCGStab:  Solving for Ux, Initial residual = 0.438638, Final residual = 0.0159728, No Iterations 1
DILUPBiCGStab:  Solving for Uy, Initial residual = 0.395509, Final residual = 0.014284, No Iterations 1
DILUPBiCGStab:  Solving for Uz, Initial residual = 0.38024, Final residual = 0.0030166, No Iterations 1
DILUPBiCGStab:  Solving for e, Initial residual = 0.156783, Final residual = 0.00203463, No Iterations 1
DICPCG:  Solving for p_rgh, Initial residual = 0.0772909, Final residual = 0.000530406, No Iterations 194
time step continuity errors : sum local = 629.8, global = -1.43041, cumulative = 3.14673
DILUPBiCGStab:  Solving for epsilon, Initial residual = 0, Final residual = 0, No Iterations 0
DILUPBiCGStab:  Solving for k, Initial residual = 0.0574635, Final residual = 0.00169115, No Iterations 1
ExecutionTime = 0.49 s  ClockTime = 1 s

Time = 6

DILUPBiCGStab:  Solving for Ux, Initial residual = 0.247233, Final residual = 0.011824, No Iterations 1
DILUPBiCGStab:  Solving for Uy, Initial residual = 0.220655, Final residual = 0.0144322, No Iterations 1
DILUPBiCGStab:  Solving for Uz, Initial residual = 0.218173, Final residual = 0.00627019, No Iterations 1
DILUPBiCGStab:  Solving for e, Initial residual = 0.122133, Final residual = 0.0016651, No Iterations 1
DICPCG:  Solving for p_rgh, Initial residual = 0.191144, Final residual = 0.00172338, No Iterations 196
time step continuity errors : sum local = 827.089, global = 4.49164, cumulative = 7.63838
DILUPBiCGStab:  Solving for epsilon, Initial residual = 0, Final residual = 0, No Iterations 0
DILUPBiCGStab:  Solving for k, Initial residual = 0.0443588, Final residual = 0.00108909, No Iterations 1
ExecutionTime = 0.54 s  ClockTime = 1 s

Time = 7

DILUPBiCGStab:  Solving for Ux, Initial residual = 0.267455, Final residual = 0.0132674, No Iterations 1
DILUPBiCGStab:  Solving for Uy, Initial residual = 0.261656, Final residual = 0.0143324, No Iterations 1
DILUPBiCGStab:  Solving for Uz, Initial residual = 0.150094, Final residual = 0.00619818, No Iterations 1
DILUPBiCGStab:  Solving for e, Initial residual = 0.147624, Final residual = 0.00178085, No Iterations 1
DICPCG:  Solving for p_rgh, Initial residual = 0.124677, Final residual = 0.00110509, No Iterations 199
time step continuity errors : sum local = 664.414, global = -5.93543, cumulative = 1.70294
DILUPBiCGStab:  Solving for epsilon, Initial residual = 0, Final residual = 0, No Iterations 0
DILUPBiCGStab:  Solving for k, Initial residual = 0.0355559, Final residual = 0.000739555, No Iterations 1
ExecutionTime = 0.6 s  ClockTime = 1 s

Time = 8

DILUPBiCGStab:  Solving for Ux, Initial residual = 0.226221, Final residual = 0.0117022, No Iterations 1
DILUPBiCGStab:  Solving for Uy, Initial residual = 0.219917, Final residual = 0.011258, No Iterations 1
DILUPBiCGStab:  Solving for Uz, Initial residual = 0.141572, Final residual = 0.00511913, No Iterations 1
DILUPBiCGStab:  Solving for e, Initial residual = 0.0704343, Final residual = 0.000896525, No Iterations 1
DICPCG:  Solving for p_rgh, Initial residual = 0.111242, Final residual = 0.000940279, No Iterations 201
time step continuity errors : sum local = 718.822, global = -1.70255, cumulative = 0.000394232
DILUPBiCGStab:  Solving for epsilon, Initial residual = 0, Final residual = 0, No Iterations 0
DILUPBiCGStab:  Solving for k, Initial residual = 0.0295655, Final residual = 0.000535426, No Iterations 1
ExecutionTime = 0.66 s  ClockTime = 1 s

Time = 9

DILUPBiCGStab:  Solving for Ux, Initial residual = 0.0559771, Final residual = 0.00331727, No Iterations 1
DILUPBiCGStab:  Solving for Uy, Initial residual = 0.0717705, Final residual = 0.00633217, No Iterations 1
DILUPBiCGStab:  Solving for Uz, Initial residual = 0.114186, Final residual = 0.00516407, No Iterations 1
DILUPBiCGStab:  Solving for e, Initial residual = 0.0709124, Final residual = 0.000718247, No Iterations 1
DICPCG:  Solving for p_rgh, Initial residual = 0.477303, Final residual = 0.0046349, No Iterations 198
time step continuity errors : sum local = 746.91, global = -0.841146, cumulative = -0.840752
DILUPBiCGStab:  Solving for epsilon, Initial residual = 0, Final residual = 0, No Iterations 0
DILUPBiCGStab:  Solving for k, Initial residual = 0.025088, Final residual = 0.000433671, No Iterations 1
ExecutionTime = 0.72 s  ClockTime = 1 s

Time = 10

DILUPBiCGStab:  Solving for Ux, Initial residual = 0.16138, Final residual = 0.008068, No Iterations 1
DILUPBiCGStab:  Solving for Uy, Initial residual = 0.156764, Final residual = 0.0129021, No Iterations 1
DILUPBiCGStab:  Solving for Uz, Initial residual = 0.102804, Final residual = 0.00488229, No Iterations 1
DILUPBiCGStab:  Solving for e, Initial residual = 0.0705728, Final residual = 0.000904133, No Iterations 1
DICPCG:  Solving for p_rgh, Initial residual = 0.130164, Final residual = 0.00121199, No Iterations 196
time step continuity errors : sum local = 610.602, global = -6.43405, cumulative = -7.2748
DILUPBiCGStab:  Solving for epsilon, Initial residual = 0, Final residual = 0, No Iterations 0
DILUPBiCGStab:  Solving for k, Initial residual = 0.0216936, Final residual = 0.000352241, No Iterations 1
ExecutionTime = 0.78 s  ClockTime = 1 s

Time = 11

DILUPBiCGStab:  Solving for Ux, Initial residual = 0.178905, Final residual = 0.0097953, No Iterations 1
DILUPBiCGStab:  Solving for Uy, Initial residual = 0.158056, Final residual = 0.0119476, No Iterations 1
DILUPBiCGStab:  Solving for Uz, Initial residual = 0.0871879, Final residual = 0.0037958, No Iterations 1
DILUPBiCGStab:  Solving for e, Initial residual = 0.0378716, Final residual = 0.000478877, No Iterations 1
DICPCG:  Solving for p_rgh, Initial residual = 0.148233, Final residual = 0.0013483, No Iterations 197
time step continuity errors : sum local = 587.361, global = 1.85419, cumulative = -5.42061
DILUPBiCGStab:  Solving for epsilon, Initial residual = 0, Final residual = 0, No Iterations 0
DILUPBiCGStab:  Solving for k, Initial residual = 0.0189201, Final residual = 0.00028574, No Iterations 1
ExecutionTime = 0.84 s  ClockTime = 1 s

Time = 12

DILUPBiCGStab:  Solving for Ux, Initial residual = 0.0680765, Final residual = 0.00395276, No Iterations 1
DILUPBiCGStab:  Solving for Uy, Initial residual = 0.0744705, Final residual = 0.00733536, No Iterations 1
DILUPBiCGStab:  Solving for Uz, Initial residual = 0.0778016, Final residual = 0.00371765, No Iterations 1
DILUPBiCGStab:  Solving for e, Initial residual = 0.0466827, Final residual = 0.000488228, No Iterations 1
DICPCG:  Solving for p_rgh, Initial residual = 0.724175, Final residual = 0.00585795, No Iterations 193
time step continuity errors : sum local = 408.869, global = -1.63023, cumulative = -7.05084
DILUPBiCGStab:  Solving for epsilon, Initial residual = 0, Final residual = 0, No Iterations 0
DILUPBiCGStab:  Solving for k, Initial residual = 0.0167226, Final residual = 0.000236147, No Iterations 1
ExecutionTime = 0.89 s  ClockTime = 1 s

Time = 13

DILUPBiCGStab:  Solving for Ux, Initial residual = 0.117494, Final residual = 0.00575218, No Iterations 1
DILUPBiCGStab:  Solving for Uy, Initial residual = 0.121235, Final residual = 0.0115776, No Iterations 1
DILUPBiCGStab:  Solving for Uz, Initial residual = 0.0655769, Final residual = 0.00407244, No Iterations 1
DILUPBiCGStab:  Solving for e, Initial residual = 0.0415769, Final residual = 0.000395612, No Iterations 1
DICPCG:  Solving for p_rgh, Initial residual = 0.11879, Final residual = 0.00117536, No Iterations 187
time step continuity errors : sum local = 415.956, global = 6.07485, cumulative = -0.975988
DILUPBiCGStab:  Solving for epsilon, Initial residual = 0, Final residual = 0, No Iterations 0
DILUPBiCGStab:  Solving for k, Initial residual = 0.0149865, Final residual = 0.000203055, No Iterations 1
ExecutionTime = 0.95 s  ClockTime = 1 s

Time = 14

DILUPBiCGStab:  Solving for Ux, Initial residual = 0.0778635, Final residual = 0.00381855, No Iterations 1
DILUPBiCGStab:  Solving for Uy, Initial residual = 0.0769076, Final residual = 0.00703333, No Iterations 1
DILUPBiCGStab:  Solving for Uz, Initial residual = 0.0593641, Final residual = 0.00344687, No Iterations 1
DILUPBiCGStab:  Solving for e, Initial residual = 0.0263199, Final residual = 0.000180631, No Iterations 1
DICPCG:  Solving for p_rgh, Initial residual = 0.14093, Final residual = 0.000893213, No Iterations 196
time step continuity errors : sum local = 265.557, global = 0.521034, cumulative = -0.454954
DILUPBiCGStab:  Solving for epsilon, Initial residual = 0, Final residual = 0, No Iterations 0
DILUPBiCGStab:  Solving for k, Initial residual = 0.0134566, Final residual = 0.000176669, No Iterations 1
ExecutionTime = 1.01 s  ClockTime = 1 s

Time = 15

DILUPBiCGStab:  Solving for Ux, Initial residual = 0.0353803, Final residual = 0.00144948, No Iterations 1
DILUPBiCGStab:  Solving for Uy, Initial residual = 0.0511976, Final residual = 0.00402831, No Iterations 1
DILUPBiCGStab:  Solving for Uz, Initial residual = 0.0554181, Final residual = 0.00272918, No Iterations 1
DILUPBiCGStab:  Solving for e, Initial residual = 0.0301408, Final residual = 0.000199696, No Iterations 1
DICPCG:  Solving for p_rgh, Initial residual = 0.261563, Final residual = 0.00213947, No Iterations 195
time step continuity errors : sum local = 266.712, global = -0.846152, cumulative = -1.30111
DILUPBiCGStab:  Solving for epsilon, Initial residual = 0, Final residual = 0, No Iterations 0
DILUPBiCGStab:  Solving for k, Initial residual = 0.0121707, Final residual = 0.000156358, No Iterations 1
ExecutionTime = 1.06 s  ClockTime = 1 s

Time = 16

DILUPBiCGStab:  Solving for Ux, Initial residual = 0.0723177, Final residual = 0.0027451, No Iterations 1
DILUPBiCGStab:  Solving for Uy, Initial residual = 0.07245, Final residual = 0.00507485, No Iterations 1
DILUPBiCGStab:  Solving for Uz, Initial residual = 0.0489685, Final residual = 0.00227319, No Iterations 1
DILUPBiCGStab:  Solving for e, Initial residual = 0.0255872, Final residual = 0.000147077, No Iterations 1
DICPCG:  Solving for p_rgh, Initial residual = 0.0817717, Final residual = 0.000622734, No Iterations 196
time step continuity errors : sum local = 206.892, global = 1.06826, cumulative = -0.232848
DILUPBiCGStab:  Solving for epsilon, Initial residual = 0, Final residual = 0, No Iterations 0
DILUPBiCGStab:  Solving for k, Initial residual = 0.0110739, Final residual = 0.000138311, No Iterations 1
ExecutionTime = 1.12 s  ClockTime = 1 s

Time = 17

DILUPBiCGStab:  Solving for Ux, Initial residual = 0.0441059, Final residual = 0.00159619, No Iterations 1
DILUPBiCGStab:  Solving for Uy, Initial residual = 0.0435755, Final residual = 0.00322468, No Iterations 1
DILUPBiCGStab:  Solving for Uz, Initial residual = 0.0467463, Final residual = 0.00217513, No Iterations 1
DILUPBiCGStab:  Solving for e, Initial residual = 0.0205895, Final residual = 9.02418e-05, No Iterations 1
DICPCG:  Solving for p_rgh, Initial residual = 0.179482, Final residual = 0.00158854, No Iterations 194
time step continuity errors : sum local = 233.771, global = -2.36139, cumulative = -2.59424
DILUPBiCGStab:  Solving for epsilon, Initial residual = 0, Final residual = 0, No Iterations 0
DILUPBiCGStab:  Solving for k, Initial residual = 0.0101413, Final residual = 0.000123692, No Iterations 1
ExecutionTime = 1.18 s  ClockTime = 1 s

Time = 18

DILUPBiCGStab:  Solving for Ux, Initial residual = 0.0315046, Final residual = 0.000883523, No Iterations 1
DILUPBiCGStab:  Solving for Uy, Initial residual = 0.0430315, Final residual = 0.00298177, No Iterations 1
DILUPBiCGStab:  Solving for Uz, Initial residual = 0.0447563, Final residual = 0.00206478, No Iterations 1
DILUPBiCGStab:  Solving for e, Initial residual = 0.0218944, Final residual = 0.000103692, No Iterations 1
DICPCG:  Solving for p_rgh, Initial residual = 0.214083, Final residual = 0.00202032, No Iterations 195
time step continuity errors : sum local = 197.093, global = 0.0844017, cumulative = -2.50984
DILUPBiCGStab:  Solving for epsilon, Initial residual = 0, Final residual = 0, No Iterations 0
DILUPBiCGStab:  Solving for k, Initial residual = 0.00933975, Final residual = 0.000111462, No Iterations 1
ExecutionTime = 1.24 s  ClockTime = 2 s

Time = 19

DILUPBiCGStab:  Solving for Ux, Initial residual = 0.0441972, Final residual = 0.00162457, No Iterations 1
DILUPBiCGStab:  Solving for Uy, Initial residual = 0.0420628, Final residual = 0.00358729, No Iterations 1
DILUPBiCGStab:  Solving for Uz, Initial residual = 0.040995, Final residual = 0.00207491, No Iterations 1
DILUPBiCGStab:  Solving for e, Initial residual = 0.0182341, Final residual = 7.64671e-05, No Iterations 1
DICPCG:  Solving for p_rgh, Initial residual = 0.139487, Final residual = 0.00117161, No Iterations 196
time step continuity errors : sum local = 153.704, global = -1.19181, cumulative = -3.70165
DILUPBiCGStab:  Solving for epsilon, Initial residual = 0, Final residual = 0, No Iterations 0
DILUPBiCGStab:  Solving for k, Initial residual = 0.0086233, Final residual = 0.000100456, No Iterations 1
ExecutionTime = 1.3 s  ClockTime = 2 s

Time = 20

DILUPBiCGStab:  Solving for Ux, Initial residual = 0.0201521, Final residual = 0.000903102, No Iterations 1
DILUPBiCGStab:  Solving for Uy, Initial residual = 0.0198012, Final residual = 0.00156067, No Iterations 1
DILUPBiCGStab:  Solving for Uz, Initial residual = 0.0368151, Final residual = 0.00152236, No Iterations 1
DILUPBiCGStab:  Solving for e, Initial residual = 0.0165461, Final residual = 5.24149e-05, No Iterations 1
DICPCG:  Solving for p_rgh, Initial residual = 0.288473, Final residual = 0.00257015, No Iterations 196
time step continuity errors : sum local = 151.779, global = 0.334686, cumulative = -3.36696
DILUPBiCGStab:  Solving for epsilon, Initial residual = 0, Final residual = 0, No Iterations 0
DILUPBiCGStab:  Solving for k, Initial residual = 0.00799279, Final residual = 9.00981e-05, No Iterations 1
ExecutionTime = 1.35 s  ClockTime = 2 s

Time = 21

DILUPBiCGStab:  Solving for Ux, Initial residual = 0.021122, Final residual = 0.000808312, No Iterations 1
DILUPBiCGStab:  Solving for Uy, Initial residual = 0.027178, Final residual = 0.00128213, No Iterations 1
DILUPBiCGStab:  Solving for Uz, Initial residual = 0.0345667, Final residual = 0.00140798, No Iterations 1
DILUPBiCGStab:  Solving for e, Initial residual = 0.0162141, Final residual = 5.14263e-05, No Iterations 1
DICPCG:  Solving for p_rgh, Initial residual = 0.195332, Final residual = 0.0017392, No Iterations 196
time step continuity errors : sum local = 123.415, global = -0.119402, cumulative = -3.48636
DILUPBiCGStab:  Solving for epsilon, Initial residual = 0, Final residual = 0, No Iterations 0
DILUPBiCGStab:  Solving for k, Initial residual = 0.00742798, Final residual = 7.99333e-05, No Iterations 1
ExecutionTime = 1.41 s  ClockTime = 2 s

Time = 22

DILUPBiCGStab:  Solving for Ux, Initial residual = 0.0248228, Final residual = 0.00102392, No Iterations 1
DILUPBiCGStab:  Solving for Uy, Initial residual = 0.0254497, Final residual = 0.00171434, No Iterations 1
DILUPBiCGStab:  Solving for Uz, Initial residual = 0.0307468, Final residual = 0.00137898, No Iterations 1
DILUPBiCGStab:  Solving for e, Initial residual = 0.014024, Final residual = 3.64793e-05, No Iterations 1
DICPCG:  Solving for p_rgh, Initial residual = 0.177438, Final residual = 0.00174146, No Iterations 197
time step continuity errors : sum local = 131.126, global = -0.0680574, cumulative = -3.55442
DILUPBiCGStab:  Solving for epsilon, Initial residual = 0, Final residual = 0, No Iterations 0
DILUPBiCGStab:  Solving for k, Initial residual = 0.0069259, Final residual = 7.09323e-05, No Iterations 1
ExecutionTime = 1.47 s  ClockTime = 2 s

Time = 23

DILUPBiCGStab:  Solving for Ux, Initial residual = 0.0114246, Final residual = 0.000483229, No Iterations 1
DILUPBiCGStab:  Solving for Uy, Initial residual = 0.0166077, Final residual = 0.000999602, No Iterations 1
DILUPBiCGStab:  Solving for Uz, Initial residual = 0.0296469, Final residual = 0.00143506, No Iterations 1
DILUPBiCGStab:  Solving for e, Initial residual = 0.0136789, Final residual = 3.25492e-05, No Iterations 1
DICPCG:  Solving for p_rgh, Initial residual = 0.395371, Final residual = 0.00294596, No Iterations 197
time step continuity errors : sum local = 90.2145, global = -0.152244, cumulative = -3.70666
DILUPBiCGStab:  Solving for epsilon, Initial residual = 0, Final residual = 0, No Iterations 0
DILUPBiCGStab:  Solving for k, Initial residual = 0.00648676, Final residual = 6.2617e-05, No Iterations 1
ExecutionTime = 1.53 s  ClockTime = 2 s

Time = 24

DILUPBiCGStab:  Solving for Ux, Initial residual = 0.0156399, Final residual = 0.000446882, No Iterations 1
DILUPBiCGStab:  Solving for Uy, Initial residual = 0.0190607, Final residual = 0.00108972, No Iterations 1
DILUPBiCGStab:  Solving for Uz, Initial residual = 0.0268046, Final residual = 0.00132069, No Iterations 1
DILUPBiCGStab:  Solving for e, Initial residual = 0.013219, Final residual = 3.17777e-05, No Iterations 1
DICPCG:  Solving for p_rgh, Initial residual = 0.182203, Final residual = 0.00144707, No Iterations 166
time step continuity errors : sum local = 78.4125, global = -3.69465, cumulative = -7.40131
DILUPBiCGStab:  Solving for epsilon, Initial residual = 0, Final residual = 0, No Iterations 0
DILUPBiCGStab:  Solving for k, Initial residual = 0.00609612, Final residual = 5.53288e-05, No Iterations 1
ExecutionTime = 1.58 s  ClockTime = 2 s

Time = 25

DILUPBiCGStab:  Solving for Ux, Initial residual = 0.0139866, Final residual = 0.000517976, No Iterations 1
DILUPBiCGStab:  Solving for Uy, Initial residual = 0.0140142, Final residual = 0.000947604, No Iterations 1
DILUPBiCGStab:  Solving for Uz, Initial residual = 0.0257054, Final residual = 0.00102648, No Iterations 1
DILUPBiCGStab:  Solving for e, Initial residual = 0.012096, Final residual = 2.4959e-05, No Iterations 1
DICPCG:  Solving for p_rgh, Initial residual = 0.187127, Final residual = 0.0017106, No Iterations 197
time step continuity errors : sum local = 81.7392, global = 0.116665, cumulative = -7.28465
DILUPBiCGStab:  Solving for epsilon, Initial residual = 0, Final residual = 0, No Iterations 0
DILUPBiCGStab:  Solving for k, Initial residual = 0.00573552, Final residual = 4.81321e-05, No Iterations 1
ExecutionTime = 1.64 s  ClockTime = 2 s

Time = 26

DILUPBiCGStab:  Solving for Ux, Initial residual = 0.00738049, Final residual = 0.000350971, No Iterations 1
DILUPBiCGStab:  Solving for Uy, Initial residual = 0.0113675, Final residual = 0.000507568, No Iterations 1
DILUPBiCGStab:  Solving for Uz, Initial residual = 0.0252442, Final residual = 0.0011529, No Iterations 1
DILUPBiCGStab:  Solving for e, Initial residual = 0.0118478, Final residual = 2.20789e-05, No Iterations 1
DICPCG:  Solving for p_rgh, Initial residual = 0.324118, Final residual = 0.00285387, No Iterations 198
time step continuity errors : sum local = 70.3851, global = 0.0343445, cumulative = -7.2503
DILUPBiCGStab:  Solving for epsilon, Initial residual = 0, Final residual = 0, No Iterations 0
DILUPBiCGStab:  Solving for k, Initial residual = 0.00541055, Final residual = 4.20166e-05, No Iterations 1
ExecutionTime = 1.69 s  ClockTime = 2 s

Time = 27

DILUPBiCGStab:  Solving for Ux, Initial residual = 0.0103885, Final residual = 0.000361929, No Iterations 1
DILUPBiCGStab:  Solving for Uy, Initial residual = 0.0134174, Final residual = 0.000687148, No Iterations 1
DILUPBiCGStab:  Solving for Uz, Initial residual = 0.0241109, Final residual = 0.00134212, No Iterations 1
DILUPBiCGStab:  Solving for e, Initial residual = 0.0112555, Final residual = 1.97674e-05, No Iterations 1
DICPCG:  Solving for p_rgh, Initial residual = 0.17667, Final residual = 0.0014944, No Iterations 186
time step continuity errors : sum local = 60.9944, global = 0.323555, cumulative = -6.92675
DILUPBiCGStab:  Solving for epsilon, Initial residual = 0, Final residual = 0, No Iterations 0
DILUPBiCGStab:  Solving for k, Initial residual = 0.00511356, Final residual = 3.64201e-05, No Iterations 1
ExecutionTime = 1.75 s  ClockTime = 2 s

Time = 28

DILUPBiCGStab:  Solving for Ux, Initial residual = 0.00862456, Final residual = 0.000333045, No Iterations 1
DILUPBiCGStab:  Solving for Uy, Initial residual = 0.00962275, Final residual = 0.000660164, No Iterations 1
DILUPBiCGStab:  Solving for Uz, Initial residual = 0.0225854, Final residual = 0.0014784, No Iterations 1
DILUPBiCGStab:  Solving for e, Initial residual = 0.010626, Final residual = 1.68922e-05, No Iterations 1
DICPCG:  Solving for p_rgh, Initial residual = 0.205373, Final residual = 0.00183458, No Iterations 165
time step continuity errors : sum local = 61.2605, global = 0.788575, cumulative = -6.13817
DILUPBiCGStab:  Solving for epsilon, Initial residual = 0, Final residual = 0, No Iterations 0
DILUPBiCGStab:  Solving for k, Initial residual = 0.00484744, Final residual = 3.17228e-05, No Iterations 1
ExecutionTime = 1.8 s  ClockTime = 2 s

Time = 29

DILUPBiCGStab:  Solving for Ux, Initial residual = 0.0066021, Final residual = 0.000273202, No Iterations 1
DILUPBiCGStab:  Solving for Uy, Initial residual = 0.00978762, Final residual = 0.000594923, No Iterations 1
DILUPBiCGStab:  Solving for Uz, Initial residual = 0.0218893, Final residual = 0.00151439, No Iterations 1
DILUPBiCGStab:  Solving for e, Initial residual = 0.0103635, Final residual = 1.65984e-05, No Iterations 1
DICPCG:  Solving for p_rgh, Initial residual = 0.268623, Final residual = 0.00244337, No Iterations 198
time step continuity errors : sum local = 56.1616, global = -0.289092, cumulative = -6.42727
DILUPBiCGStab:  Solving for epsilon, Initial residual = 0, Final residual = 0, No Iterations 0
DILUPBiCGStab:  Solving for k, Initial residual = 0.00460195, Final residual = 2.79111e-05, No Iterations 1
ExecutionTime = 1.87 s  ClockTime = 2 s

Time = 30

DILUPBiCGStab:  Solving for Ux, Initial residual = 0.00752289, Final residual = 0.000281434, No Iterations 1
DILUPBiCGStab:  Solving for Uy, Initial residual = 0.00954862, Final residual = 0.00051676, No Iterations 1
DILUPBiCGStab:  Solving for Uz, Initial residual = 0.020888, Final residual = 0.0013077, No Iterations 1
DILUPBiCGStab:  Solving for e, Initial residual = 0.00993887, Final residual = 1.67856e-05, No Iterations 1
DICPCG:  Solving for p_rgh, Initial residual = 0.190912, Final residual = 0.00180242, No Iterations 190
time step continuity errors : sum local = 52.9655, global = -0.599975, cumulative = -7.02724
DILUPBiCGStab:  Solving for epsilon, Initial residual = 0, Final residual = 0, No Iterations 0
DILUPBiCGStab:  Solving for k, Initial residual = 0.00437932, Final residual = 2.51343e-05, No Iterations 1
ExecutionTime = 1.93 s  ClockTime = 2 s

Time = 31

DILUPBiCGStab:  Solving for Ux, Initial residual = 0.00571274, Final residual = 0.000269616, No Iterations 1
DILUPBiCGStab:  Solving for Uy, Initial residual = 0.00752188, Final residual = 0.00043602, No Iterations 1
DILUPBiCGStab:  Solving for Uz, Initial residual = 0.0202014, Final residual = 0.00131323, No Iterations 1
DILUPBiCGStab:  Solving for e, Initial residual = 0.00964235, Final residual = 1.73225e-05, No Iterations 1
DICPCG:  Solving for p_rgh, Initial residual = 0.219499, Final residual = 0.00202198, No Iterations 195
time step continuity errors : sum local = 46.6137, global = -0.449413, cumulative = -7.47665
DILUPBiCGStab:  Solving for epsilon, Initial residual = 0, Final residual = 0, No Iterations 0
DILUPBiCGStab:  Solving for k, Initial residual = 0.00417029, Final residual = 2.30492e-05, No Iterations 1
ExecutionTime = 1.99 s  ClockTime = 2 s

Time = 32

DILUPBiCGStab:  Solving for Ux, Initial residual = 0.00503136, Final residual = 0.000255829, No Iterations 1
DILUPBiCGStab:  Solving for Uy, Initial residual = 0.00819224, Final residual = 0.000488157, No Iterations 1
DILUPBiCGStab:  Solving for Uz, Initial residual = 0.0200789, Final residual = 0.00142389, No Iterations 1
DILUPBiCGStab:  Solving for e, Initial residual = 0.00938198, Final residual = 1.78795e-05, No Iterations 1
DICPCG:  Solving for p_rgh, Initial residual = 0.200714, Final residual = 0.00193318, No Iterations 197
time step continuity errors : sum local = 43.0383, global = 0.0809521, cumulative = -7.3957
DILUPBiCGStab:  Solving for epsilon, Initial residual = 0, Final residual = 0, No Iterations 0
DILUPBiCGStab:  Solving for k, Initial residual = 0.00398062, Final residual = 2.1399e-05, No Iterations 1
ExecutionTime = 2.04 s  ClockTime = 2 s

Time = 33

DILUPBiCGStab:  Solving for Ux, Initial residual = 0.00526392, Final residual = 0.000249124, No Iterations 1
DILUPBiCGStab:  Solving for Uy, Initial residual = 0.00728731, Final residual = 0.000528988, No Iterations 1
DILUPBiCGStab:  Solving for Uz, Initial residual = 0.0200207, Final residual = 0.00144629, No Iterations 1
DILUPBiCGStab:  Solving for e, Initial residual = 0.00903341, Final residual = 1.7726e-05, No Iterations 1
DICPCG:  Solving for p_rgh, Initial residual = 0.176565, Final residual = 0.00164177, No Iterations 188
time step continuity errors : sum local = 39.2188, global = -0.491945, cumulative = -7.88765
DILUPBiCGStab:  Solving for epsilon, Initial residual = 0, Final residual = 0, No Iterations 0
DILUPBiCGStab:  Solving for k, Initial residual = 0.00380613, Final residual = 1.99936e-05, No Iterations 1
ExecutionTime = 2.1 s  ClockTime = 2 s

Time = 34

DILUPBiCGStab:  Solving for Ux, Initial residual = 0.00453615, Final residual = 0.000250027, No Iterations 1
DILUPBiCGStab:  Solving for Uy, Initial residual = 0.00629412, Final residual = 0.000497478, No Iterations 1
DILUPBiCGStab:  Solving for Uz, Initial residual = 0.0195455, Final residual = 0.00142385, No Iterations 1
DILUPBiCGStab:  Solving for e, Initial residual = 0.00875248, Final residual = 1.78204e-05, No Iterations 1
DICPCG:  Solving for p_rgh, Initial residual = 0.212417, Final residual = 0.00163742, No Iterations 197
time step continuity errors : sum local = 31.2344, global = 0.0550251, cumulative = -7.83262
DILUPBiCGStab:  Solving for epsilon, Initial residual = 0, Final residual = 0, No Iterations 0
DILUPBiCGStab:  Solving for k, Initial residual = 0.00364496, Final residual = 1.8903e-05, No Iterations 1
ExecutionTime = 2.17 s  ClockTime = 2 s

Time = 35

DILUPBiCGStab:  Solving for Ux, Initial residual = 0.00472887, Final residual = 0.00025518, No Iterations 1
DILUPBiCGStab:  Solving for Uy, Initial residual = 0.00686184, Final residual = 0.000519023, No Iterations 1
DILUPBiCGStab:  Solving for Uz, Initial residual = 0.0192913, Final residual = 0.00137377, No Iterations 1
DILUPBiCGStab:  Solving for e, Initial residual = 0.00850788, Final residual = 1.82265e-05, No Iterations 1
DICPCG:  Solving for p_rgh, Initial residual = 0.187824, Final residual = 0.0016836, No Iterations 86
time step continuity errors : sum local = 33.1545, global = 1.85205, cumulative = -5.98057
DILUPBiCGStab:  Solving for epsilon, Initial residual = 0, Final residual = 0, No Iterations 0
DILUPBiCGStab:  Solving for k, Initial residual = 0.00349897, Final residual = 1.80999e-05, No Iterations 1
ExecutionTime = 2.21 s  ClockTime = 3 s

Time = 36

DILUPBiCGStab:  Solving for Ux, Initial residual = 0.00443863, Final residual = 0.000248895, No Iterations 1
DILUPBiCGStab:  Solving for Uy, Initial residual = 0.00629405, Final residual = 0.000492613, No Iterations 1
DILUPBiCGStab:  Solving for Uz, Initial residual = 0.0190404, Final residual = 0.00133956, No Iterations 1
DILUPBiCGStab:  Solving for e, Initial residual = 0.0082958, Final residual = 1.91401e-05, No Iterations 1
DICPCG:  Solving for p_rgh, Initial residual = 0.177471, Final residual = 0.00157841, No Iterations 200
time step continuity errors : sum local = 30.6155, global = -0.0185149, cumulative = -5.99908
DILUPBiCGStab:  Solving for epsilon, Initial residual = 0, Final residual = 0, No Iterations 0
DILUPBiCGStab:  Solving for k, Initial residual = 0.00336186, Final residual = 1.75473e-05, No Iterations 1
ExecutionTime = 2.27 s  ClockTime = 3 s

Time = 37

DILUPBiCGStab:  Solving for Ux, Initial residual = 0.00388524, Final residual = 0.000253995, No Iterations 1
DILUPBiCGStab:  Solving for Uy, Initial residual = 0.00607242, Final residual = 0.000518257, No Iterations 1
DILUPBiCGStab:  Solving for Uz, Initial residual = 0.0192346, Final residual = 0.00136621, No Iterations 1
DILUPBiCGStab:  Solving for e, Initial residual = 0.00811292, Final residual = 2.00659e-05, No Iterations 1
DICPCG:  Solving for p_rgh, Initial residual = 0.180752, Final residual = 0.00146512, No Iterations 199
time step continuity errors : sum local = 25.9567, global = 0.108719, cumulative = -5.89036
DILUPBiCGStab:  Solving for epsilon, Initial residual = 0, Final residual = 0, No Iterations 0
DILUPBiCGStab:  Solving for k, Initial residual = 0.00323639, Final residual = 1.72475e-05, No Iterations 1
ExecutionTime = 2.32 s  ClockTime = 3 s

Time = 38

DILUPBiCGStab:  Solving for Ux, Initial residual = 0.00391413, Final residual = 0.000261157, No Iterations 1
DILUPBiCGStab:  Solving for Uy, Initial residual = 0.0061173, Final residual = 0.000562261, No Iterations 1
DILUPBiCGStab:  Solving for Uz, Initial residual = 0.0200919, Final residual = 0.00141517, No Iterations 1
DILUPBiCGStab:  Solving for e, Initial residual = 0.00791423, Final residual = 2.06969e-05, No Iterations 1
DICPCG:  Solving for p_rgh, Initial residual = 0.15039, Final residual = 0.00134308, No Iterations 199
time step continuity errors : sum local = 26.3823, global = -0.0405858, cumulative = -5.93095
DILUPBiCGStab:  Solving for epsilon, Initial residual = 0, Final residual = 0, No Iterations 0
DILUPBiCGStab:  Solving for k, Initial residual = 0.00311955, Final residual = 1.71181e-05, No Iterations 1
ExecutionTime = 2.38 s  ClockTime = 3 s

Time = 39

DILUPBiCGStab:  Solving for Ux, Initial residual = 0.0037558, Final residual = 0.000264485, No Iterations 1
DILUPBiCGStab:  Solving for Uy, Initial residual = 0.00550767, Final residual = 0.000527299, No Iterations 1
DILUPBiCGStab:  Solving for Uz, Initial residual = 0.0207524, Final residual = 0.00144657, No Iterations 1
DILUPBiCGStab:  Solving for e, Initial residual = 0.00770546, Final residual = 2.11142e-05, No Iterations 1
DICPCG:  Solving for p_rgh, Initial residual = 0.154627, Final residual = 0.00146317, No Iterations 200
time step continuity errors : sum local = 26.6156, global = 0.130274, cumulative = -5.80067
DILUPBiCGStab:  Solving for epsilon, Initial residual = 0, Final residual = 0, No Iterations 0
DILUPBiCGStab:  Solving for k, Initial residual = 0.00301439, Final residual = 1.7076e-05, No Iterations 1
ExecutionTime = 2.44 s  ClockTime = 3 s

Time = 40

DILUPBiCGStab:  Solving for Ux, Initial residual = 0.00371164, Final residual = 0.000265798, No Iterations 1
DILUPBiCGStab:  Solving for Uy, Initial residual = 0.00555018, Final residual = 0.0005361, No Iterations 1
DILUPBiCGStab:  Solving for Uz, Initial residual = 0.0205461, Final residual = 0.00140349, No Iterations 1
DILUPBiCGStab:  Solving for e, Initial residual = 0.00751871, Final residual = 2.15991e-05, No Iterations 1
DICPCG:  Solving for p_rgh, Initial residual = 0.164929, Final residual = 0.00156434, No Iterations 199
time step continuity errors : sum local = 25.7495, global = 0.165101, cumulative = -5.63557
DILUPBiCGStab:  Solving for epsilon, Initial residual = 0, Final residual = 0, No Iterations 0
DILUPBiCGStab:  Solving for k, Initial residual = 0.00291424, Final residual = 1.7216e-05, No Iterations 1
ExecutionTime = 2.5 s  ClockTime = 3 s

Time = 41

DILUPBiCGStab:  Solving for Ux, Initial residual = 0.00369566, Final residual = 0.000267278, No Iterations 1
DILUPBiCGStab:  Solving for Uy, Initial residual = 0.00549323, Final residual = 0.000538002, No Iterations 1
DILUPBiCGStab:  Solving for Uz, Initial residual = 0.0203475, Final residual = 0.00134563, No Iterations 1
DILUPBiCGStab:  Solving for e, Initial residual = 0.00734858, Final residual = 2.20607e-05, No Iterations 1
DICPCG:  Solving for p_rgh, Initial residual = 0.150214, Final residual = 0.00141827, No Iterations 199
time step continuity errors : sum local = 24.2873, global = -0.0406808, cumulative = -5.67625
DILUPBiCGStab:  Solving for epsilon, Initial residual = 0, Final residual = 0, No Iterations 0
DILUPBiCGStab:  Solving for k, Initial residual = 0.00282117, Final residual = 1.74266e-05, No Iterations 1
ExecutionTime = 2.56 s  ClockTime = 3 s

Time = 42

DILUPBiCGStab:  Solving for Ux, Initial residual = 0.00345383, Final residual = 0.000262607, No Iterations 1
DILUPBiCGStab:  Solving for Uy, Initial residual = 0.00535039, Final residual = 5.64923e-05, No Iterations 1
DILUPBiCGStab:  Solving for Uz, Initial residual = 0.0202004, Final residual = 0.00128718, No Iterations 1
DILUPBiCGStab:  Solving for e, Initial residual = 0.00719682, Final residual = 2.25443e-05, No Iterations 1
DICPCG:  Solving for p_rgh, Initial residual = 0.150813, Final residual = 0.00126015, No Iterations 199
time step continuity errors : sum local = 19.8686, global = -0.0479528, cumulative = -5.72421
DILUPBiCGStab:  Solving for epsilon, Initial residual = 0, Final residual = 0, No Iterations 0
DILUPBiCGStab:  Solving for k, Initial residual = 0.00273571, Final residual = 1.76899e-05, No Iterations 1
ExecutionTime = 2.62 s  ClockTime = 3 s

Time = 43

DILUPBiCGStab:  Solving for Ux, Initial residual = 0.00332876, Final residual = 0.000263788, No Iterations 1
DILUPBiCGStab:  Solving for Uy, Initial residual = 0.00542872, Final residual = 5.70585e-05, No Iterations 1
DILUPBiCGStab:  Solving for Uz, Initial residual = 0.0199451, Final residual = 0.00122037, No Iterations 1
DILUPBiCGStab:  Solving for e, Initial residual = 0.00705406, Final residual = 2.29013e-05, No Iterations 1
DICPCG:  Solving for p_rgh, Initial residual = 0.135134, Final residual = 0.0012475, No Iterations 45
time step continuity errors : sum local = 20.8444, global = 1.92681, cumulative = -3.7974
DILUPBiCGStab:  Solving for epsilon, Initial residual = 0, Final residual = 0, No Iterations 0
DILUPBiCGStab:  Solving for k, Initial residual = 0.00265528, Final residual = 1.80325e-05, No Iterations 1
ExecutionTime = 2.65 s  ClockTime = 3 s

Time = 44

DILUPBiCGStab:  Solving for Ux, Initial residual = 0.00325077, Final residual = 0.000265128, No Iterations 1
DILUPBiCGStab:  Solving for Uy, Initial residual = 0.00518853, Final residual = 5.4917e-05, No Iterations 1
DILUPBiCGStab:  Solving for Uz, Initial residual = 0.0196634, Final residual = 0.00118658, No Iterations 1
DILUPBiCGStab:  Solving for e, Initial residual = 0.0069076, Final residual = 2.3147e-05, No Iterations 1
DICPCG:  Solving for p_rgh, Initial residual = 0.131617, Final residual = 0.00129919, No Iterations 139
time step continuity errors : sum local = 21.5954, global = -1.03477, cumulative = -4.83217
DILUPBiCGStab:  Solving for epsilon, Initial residual = 0, Final residual = 0, No Iterations 0
DILUPBiCGStab:  Solving for k, Initial residual = 0.00257985, Final residual = 1.84498e-05, No Iterations 1
ExecutionTime = 2.7 s  ClockTime = 3 s

Time = 45

DILUPBiCGStab:  Solving for Ux, Initial residual = 0.00321583, Final residual = 0.000262212, No Iterations 1
DILUPBiCGStab:  Solving for Uy, Initial residual = 0.00507805, Final residual = 5.25125e-05, No Iterations 1
DILUPBiCGStab:  Solving for Uz, Initial residual = 0.0199326, Final residual = 0.00119774, No Iterations 1
DILUPBiCGStab:  Solving for e, Initial residual = 0.00676913, Final residual = 2.33431e-05, No Iterations 1
DICPCG:  Solving for p_rgh, Initial residual = 0.130166, Final residual = 0.0012197, No Iterations 150
time step continuity errors : sum local = 19.8408, global = 0.746178, cumulative = -4.08599
DILUPBiCGStab:  Solving for epsilon, Initial residual = 0, Final residual = 0, No Iterations 0
DILUPBiCGStab:  Solving for k, Initial residual = 0.00251077, Final residual = 1.90038e-05, No Iterations 1
ExecutionTime = 2.75 s  ClockTime = 3 s

Time = 46

DILUPBiCGStab:  Solving for Ux, Initial residual = 0.00323809, Final residual = 0.000264132, No Iterations 1
DILUPBiCGStab:  Solving for Uy, Initial residual = 0.00508804, Final residual = 5.23441e-05, No Iterations 1
DILUPBiCGStab:  Solving for Uz, Initial residual = 0.0196042, Final residual = 0.00121766, No Iterations 1
DILUPBiCGStab:  Solving for e, Initial residual = 0.0066309, Final residual = 2.32683e-05, No Iterations 1
DICPCG:  Solving for p_rgh, Initial residual = 0.136189, Final residual = 0.00131726, No Iterations 110
time step continuity errors : sum local = 20.0625, global = -1.90239, cumulative = -5.98838
DILUPBiCGStab:  Solving for epsilon, Initial residual = 0, Final residual = 0, No Iterations 0
DILUPBiCGStab:  Solving for k, Initial residual = 0.00244658, Final residual = 1.9512e-05, No Iterations 1
ExecutionTime = 2.79 s  ClockTime = 3 s

Time = 47

DILUPBiCGStab:  Solving for Ux, Initial residual = 0.00320576, Final residual = 0.000264469, No Iterations 1
DILUPBiCGStab:  Solving for Uy, Initial residual = 0.00508601, Final residual = 5.17718e-05, No Iterations 1
DILUPBiCGStab:  Solving for Uz, Initial residual = 0.0200405, Final residual = 0.0012726, No Iterations 1
DILUPBiCGStab:  Solving for e, Initial residual = 0.00650577, Final residual = 2.30768e-05, No Iterations 1
DICPCG:  Solving for p_rgh, Initial residual = 0.12969, Final residual = 0.00115414, No Iterations 67
time step continuity errors : sum local = 17.4845, global = 0.734465, cumulative = -5.25392
DILUPBiCGStab:  Solving for epsilon, Initial residual = 0, Final residual = 0, No Iterations 0
DILUPBiCGStab:  Solving for k, Initial residual = 0.00238317, Final residual = 2.0073e-05, No Iterations 1
ExecutionTime = 2.82 s  ClockTime = 3 s

Time = 48

DILUPBiCGStab:  Solving for Ux, Initial residual = 0.00309045, Final residual = 0.000261108, No Iterations 1
DILUPBiCGStab:  Solving for Uy, Initial residual = 0.0049853, Final residual = 5.10698e-05, No Iterations 1
DILUPBiCGStab:  Solving for Uz, Initial residual = 0.0197888, Final residual = 0.00122504, No Iterations 1
DILUPBiCGStab:  Solving for e, Initial residual = 0.00638762, Final residual = 2.28153e-05, No Iterations 1
DICPCG:  Solving for p_rgh, Initial residual = 0.121487, Final residual = 0.00117375, No Iterations 157
time step continuity errors : sum local = 17.5843, global = 1.83894, cumulative = -3.41498
DILUPBiCGStab:  Solving for epsilon, Initial residual = 0, Final residual = 0, No Iterations 0
DILUPBiCGStab:  Solving for k, Initial residual = 0.00232472, Final residual = 2.06783e-05, No Iterations 1
ExecutionTime = 2.87 s  ClockTime = 3 s

Time = 49

DILUPBiCGStab:  Solving for Ux, Initial residual = 0.00300127, Final residual = 0.000254102, No Iterations 1
DILUPBiCGStab:  Solving for Uy, Initial residual = 0.00488359, Final residual = 5.04034e-05, No Iterations 1
DILUPBiCGStab:  Solving for Uz, Initial residual = 0.0197876, Final residual = 0.00117561, No Iterations 1
DILUPBiCGStab:  Solving for e, Initial residual = 0.00627851, Final residual = 2.25657e-05, No Iterations 1
DICPCG:  Solving for p_rgh, Initial residual = 0.115615, Final residual = 0.00113576, No Iterations 158
time step continuity errors : sum local = 16.9625, global = -0.00738359, cumulative = -3.42237
DILUPBiCGStab:  Solving for epsilon, Initial residual = 0, Final residual = 0, No Iterations 0
DILUPBiCGStab:  Solving for k, Initial residual = 0.00227028, Final residual = 2.13118e-05, No Iterations 1
ExecutionTime = 2.93 s  ClockTime = 3 s

Time = 50

DILUPBiCGStab:  Solving for Ux, Initial residual = 0.00297076, Final residual = 0.000252043, No Iterations 1
DILUPBiCGStab:  Solving for Uy, Initial residual = 0.0048213, Final residual = 4.97464e-05, No Iterations 1
DILUPBiCGStab:  Solving for Uz, Initial residual = 0.0196083, Final residual = 0.00113868, No Iterations 1
DILUPBiCGStab:  Solving for e, Initial residual = 0.00617159, Final residual = 2.21127e-05, No Iterations 1
DICPCG:  Solving for p_rgh, Initial residual = 0.108219, Final residual = 0.00105751, No Iterations 49
time step continuity errors : sum local = 16.1901, global = 1.15102, cumulative = -2.27135
DILUPBiCGStab:  Solving for epsilon, Initial residual = 0, Final residual = 0, No Iterations 0
DILUPBiCGStab:  Solving for k, Initial residual = 0.00221757, Final residual = 2.19963e-05, No Iterations 1
ExecutionTime = 2.96 s  ClockTime = 3 s

Time = 51

DILUPBiCGStab:  Solving for Ux, Initial residual = 0.00295404, Final residual = 0.00025224, No Iterations 1
DILUPBiCGStab:  Solving for Uy, Initial residual = 0.00482792, Final residual = 4.90596e-05, No Iterations 1
DILUPBiCGStab:  Solving for Uz, Initial residual = 0.0196917, Final residual = 0.00121165, No Iterations 1
DILUPBiCGStab:  Solving for e, Initial residual = 0.00606182, Final residual = 2.15255e-05, No Iterations 1
DICPCG:  Solving for p_rgh, Initial residual = 0.102061, Final residual = 0.000989573, No Iterations 48
time step continuity errors : sum local = 15.1015, global = 0.129456, cumulative = -2.14189
DILUPBiCGStab:  Solving for epsilon, Initial residual = 0, Final residual = 0, No Iterations 0
DILUPBiCGStab:  Solving for k, Initial residual = 0.00216772, Final residual = 2.27011e-05, No Iterations 1
ExecutionTime = 2.99 s  ClockTime = 3 s

Time = 52

DILUPBiCGStab:  Solving for Ux, Initial residual = 0.00293793, Final residual = 0.000252934, No Iterations 1
DILUPBiCGStab:  Solving for Uy, Initial residual = 0.00483264, Final residual = 4.85968e-05, No Iterations 1
DILUPBiCGStab:  Solving for Uz, Initial residual = 0.0200077, Final residual = 0.00118651, No Iterations 1
DILUPBiCGStab:  Solving for e, Initial residual = 0.0059605, Final residual = 2.07756e-05, No Iterations 1
DICPCG:  Solving for p_rgh, Initial residual = 0.101906, Final residual = 0.000995262, No Iterations 102
time step continuity errors : sum local = 15.1316, global = -0.617182, cumulative = -2.75908
DILUPBiCGStab:  Solving for epsilon, Initial residual = 0, Final residual = 0, No Iterations 0
DILUPBiCGStab:  Solving for k, Initial residual = 0.00212061, Final residual = 2.34683e-05, No Iterations 1
ExecutionTime = 3.03 s  ClockTime = 3 s

Time = 53

DILUPBiCGStab:  Solving for Ux, Initial residual = 0.00291038, Final residual = 0.000250338, No Iterations 1
DILUPBiCGStab:  Solving for Uy, Initial residual = 0.00477956, Final residual = 4.79587e-05, No Iterations 1
DILUPBiCGStab:  Solving for Uz, Initial residual = 0.0193814, Final residual = 0.00113763, No Iterations 1
DILUPBiCGStab:  Solving for e, Initial residual = 0.00586844, Final residual = 1.99464e-05, No Iterations 1
DICPCG:  Solving for p_rgh, Initial residual = 0.0976185, Final residual = 0.000903133, No Iterations 115
time step continuity errors : sum local = 13.5478, global = -1.1943, cumulative = -3.95337
DILUPBiCGStab:  Solving for epsilon, Initial residual = 0, Final residual = 0, No Iterations 0
DILUPBiCGStab:  Solving for k, Initial residual = 0.00207745, Final residual = 2.43104e-05, No Iterations 1
ExecutionTime = 3.07 s  ClockTime = 3 s

Time = 54

DILUPBiCGStab:  Solving for Ux, Initial residual = 0.0028482, Final residual = 0.000245793, No Iterations 1
DILUPBiCGStab:  Solving for Uy, Initial residual = 0.00472751, Final residual = 4.68837e-05, No Iterations 1
DILUPBiCGStab:  Solving for Uz, Initial residual = 0.0198261, Final residual = 0.00121209, No Iterations 1
DILUPBiCGStab:  Solving for e, Initial residual = 0.00577655, Final residual = 1.90404e-05, No Iterations 1
DICPCG:  Solving for p_rgh, Initial residual = 0.0994596, Final residual = 0.000864768, No Iterations 148
time step continuity errors : sum local = 12.8454, global = -0.106814, cumulative = -4.06019
DILUPBiCGStab:  Solving for epsilon, Initial residual = 0, Final residual = 0, No Iterations 0
DILUPBiCGStab:  Solving for k, Initial residual = 0.00203517, Final residual = 2.52598e-05, No Iterations 1
ExecutionTime = 3.12 s  ClockTime = 3 s

Time = 55

DILUPBiCGStab:  Solving for Ux, Initial residual = 0.00282251, Final residual = 0.000245492, No Iterations 1
DILUPBiCGStab:  Solving for Uy, Initial residual = 0.00463202, Final residual = 4.52116e-05, No Iterations 1
DILUPBiCGStab:  Solving for Uz, Initial residual = 0.0197216, Final residual = 0.001093, No Iterations 1
DILUPBiCGStab:  Solving for e, Initial residual = 0.00568505, Final residual = 1.80356e-05, No Iterations 1
DICPCG:  Solving for p_rgh, Initial residual = 0.0972337, Final residual = 0.000907832, No Iterations 56
time step continuity errors : sum local = 12.9751, global = 0.236171, cumulative = -3.82402
DILUPBiCGStab:  Solving for epsilon, Initial residual = 0, Final residual = 0, No Iterations 0
DILUPBiCGStab:  Solving for k, Initial residual = 0.00199339, Final residual = 2.63236e-05, No Iterations 1
ExecutionTime = 3.16 s  ClockTime = 3 s

Time = 56

DILUPBiCGStab:  Solving for Ux, Initial residual = 0.00281731, Final residual = 0.000245013, No Iterations 1
DILUPBiCGStab:  Solving for Uy, Initial residual = 0.0046467, Final residual = 4.38023e-05, No Iterations 1
DILUPBiCGStab:  Solving for Uz, Initial residual = 0.0195269, Final residual = 0.00113627, No Iterations 1
DILUPBiCGStab:  Solving for e, Initial residual = 0.00560059, Final residual = 1.70473e-05, No Iterations 1
DICPCG:  Solving for p_rgh, Initial residual = 0.0914505, Final residual = 0.000840399, No Iterations 120
time step continuity errors : sum local = 11.8684, global = 0.966449, cumulative = -2.85757
DILUPBiCGStab:  Solving for epsilon, Initial residual = 0, Final residual = 0, No Iterations 0
DILUPBiCGStab:  Solving for k, Initial residual = 0.0019557, Final residual = 2.75821e-05, No Iterations 1
ExecutionTime = 3.2 s  ClockTime = 4 s

Time = 57

DILUPBiCGStab:  Solving for Ux, Initial residual = 0.00280521, Final residual = 0.000243311, No Iterations 1
DILUPBiCGStab:  Solving for Uy, Initial residual = 0.00461884, Final residual = 4.2532e-05, No Iterations 1
DILUPBiCGStab:  Solving for Uz, Initial residual = 0.0190694, Final residual = 0.00101147, No Iterations 1
DILUPBiCGStab:  Solving for e, Initial residual = 0.00551487, Final residual = 1.59349e-05, No Iterations 1
DICPCG:  Solving for p_rgh, Initial residual = 0.0900713, Final residual = 0.000763275, No Iterations 172
time step continuity errors : sum local = 10.6112, global = 0.370569, cumulative = -2.487
DILUPBiCGStab:  Solving for epsilon, Initial residual = 0, Final residual = 0, No Iterations 0
DILUPBiCGStab:  Solving for k, Initial residual = 0.00191672, Final residual = 2.88888e-05, No Iterations 1
ExecutionTime = 3.25 s  ClockTime = 4 s

Time = 58

DILUPBiCGStab:  Solving for Ux, Initial residual = 0.00274153, Final residual = 0.000235359, No Iterations 1
DILUPBiCGStab:  Solving for Uy, Initial residual = 0.00451562, Final residual = 4.14775e-05, No Iterations 1
DILUPBiCGStab:  Solving for Uz, Initial residual = 0.0188792, Final residual = 0.000953112, No Iterations 1
DILUPBiCGStab:  Solving for e, Initial residual = 0.00544033, Final residual = 1.48361e-05, No Iterations 1
DICPCG:  Solving for p_rgh, Initial residual = 0.0824058, Final residual = 0.000812471, No Iterations 80
time step continuity errors : sum local = 11.6778, global = 0.60551, cumulative = -1.88149
DILUPBiCGStab:  Solving for epsilon, Initial residual = 0, Final residual = 0, No Iterations 0
DILUPBiCGStab:  Solving for k, Initial residual = 0.0018803, Final residual = 3.02933e-05, No Iterations 1
ExecutionTime = 3.3 s  ClockTime = 4 s

Time = 59

DILUPBiCGStab:  Solving for Ux, Initial residual = 0.00271764, Final residual = 0.000228922, No Iterations 1
DILUPBiCGStab:  Solving for Uy, Initial residual = 0.00440704, Final residual = 4.00454e-05, No Iterations 1
DILUPBiCGStab:  Solving for Uz, Initial residual = 0.0190958, Final residual = 0.0010208, No Iterations 1
DILUPBiCGStab:  Solving for e, Initial residual = 0.0053635, Final residual = 1.36539e-05, No Iterations 1
DICPCG:  Solving for p_rgh, Initial residual = 0.0760227, Final residual = 0.000747415, No Iterations 118
time step continuity errors : sum local = 10.6376, global = -0.893691, cumulative = -2.77518
DILUPBiCGStab:  Solving for epsilon, Initial residual = 0, Final residual = 0, No Iterations 0
DILUPBiCGStab:  Solving for k, Initial residual = 0.00184527, Final residual = 3.18116e-05, No Iterations 1
ExecutionTime = 3.34 s  ClockTime = 4 s

Time = 60

DILUPBiCGStab:  Solving for Ux, Initial residual = 0.0027018, Final residual = 0.000223083, No Iterations 1
DILUPBiCGStab:  Solving for Uy, Initial residual = 0.00439398, Final residual = 3.99351e-05, No Iterations 1
DILUPBiCGStab:  Solving for Uz, Initial residual = 0.0189566, Final residual = 0.00105342, No Iterations 1
DILUPBiCGStab:  Solving for e, Initial residual = 0.00529009, Final residual = 1.25124e-05, No Iterations 1
DICPCG:  Solving for p_rgh, Initial residual = 0.0745802, Final residual = 0.000639173, No Iterations 198
time step continuity errors : sum local = 8.98109, global = 0.0688512, cumulative = -2.70633
DILUPBiCGStab:  Solving for epsilon, Initial residual = 0, Final residual = 0, No Iterations 0
DILUPBiCGStab:  Solving for k, Initial residual = 0.0018111, Final residual = 3.36621e-05, No Iterations 1
ExecutionTime = 3.4 s  ClockTime = 4 s

Time = 61

DILUPBiCGStab:  Solving for Ux, Initial residual = 0.00269454, Final residual = 0.000222267, No Iterations 1
DILUPBiCGStab:  Solving for Uy, Initial residual = 0.00439321, Final residual = 3.83508e-05, No Iterations 1
DILUPBiCGStab:  Solving for Uz, Initial residual = 0.019617, Final residual = 0.00108151, No Iterations 1
DILUPBiCGStab:  Solving for e, Initial residual = 0.00521499, Final residual = 1.13565e-05, No Iterations 1
DICPCG:  Solving for p_rgh, Initial residual = 0.0809927, Final residual = 0.000791014, No Iterations 52
time step continuity errors : sum local = 10.7502, global = -0.848248, cumulative = -3.55458
DILUPBiCGStab:  Solving for epsilon, Initial residual = 0, Final residual = 0, No Iterations 0
DILUPBiCGStab:  Solving for k, Initial residual = 0.00177699, Final residual = 3.59084e-05, No Iterations 1
ExecutionTime = 3.44 s  ClockTime = 4 s

Time = 62

DILUPBiCGStab:  Solving for Ux, Initial residual = 0.00265479, Final residual = 0.000219469, No Iterations 1
DILUPBiCGStab:  Solving for Uy, Initial residual = 0.00441039, Final residual = 3.55732e-05, No Iterations 1
DILUPBiCGStab:  Solving for Uz, Initial residual = 0.0193636, Final residual = 0.00108654, No Iterations 1
DILUPBiCGStab:  Solving for e, Initial residual = 0.00514632, Final residual = 1.02768e-05, No Iterations 1
DICPCG:  Solving for p_rgh, Initial residual = 0.0800797, Final residual = 0.000771735, No Iterations 56
time step continuity errors : sum local = 10.4006, global = 0.116211, cumulative = -3.43836
DILUPBiCGStab:  Solving for epsilon, Initial residual = 0, Final residual = 0, No Iterations 0
DILUPBiCGStab:  Solving for k, Initial residual = 0.00174493, Final residual = 3.83417e-05, No Iterations 1
ExecutionTime = 3.47 s  ClockTime = 4 s

Time = 63

DILUPBiCGStab:  Solving for Ux, Initial residual = 0.00261779, Final residual = 0.000214741, No Iterations 1
DILUPBiCGStab:  Solving for Uy, Initial residual = 0.00432886, Final residual = 3.36399e-05, No Iterations 1
DILUPBiCGStab:  Solving for Uz, Initial residual = 0.0193769, Final residual = 0.00120201, No Iterations 1
DILUPBiCGStab:  Solving for e, Initial residual = 0.00507852, Final residual = 9.25846e-06, No Iterations 1
DICPCG:  Solving for p_rgh, Initial residual = 0.0739334, Final residual = 0.000721809, No Iterations 75
time step continuity errors : sum local = 9.63702, global = -0.244583, cumulative = -3.68295
DILUPBiCGStab:  Solving for epsilon, Initial residual = 0, Final residual = 0, No Iterations 0
DILUPBiCGStab:  Solving for k, Initial residual = 0.0017135, Final residual = 4.08766e-05, No Iterations 1
ExecutionTime = 3.51 s  ClockTime = 4 s

Time = 64

DILUPBiCGStab:  Solving for Ux, Initial residual = 0.00258702, Final residual = 0.000208766, No Iterations 1
DILUPBiCGStab:  Solving for Uy, Initial residual = 0.00421922, Final residual = 3.42446e-05, No Iterations 1
DILUPBiCGStab:  Solving for Uz, Initial residual = 0.0199649, Final residual = 0.00121063, No Iterations 1
DILUPBiCGStab:  Solving for e, Initial residual = 0.00501568, Final residual = 8.36247e-06, No Iterations 1
DICPCG:  Solving for p_rgh, Initial residual = 0.0650279, Final residual = 0.000642505, No Iterations 41
time step continuity errors : sum local = 8.48538, global = 0.358648, cumulative = -3.3243
DILUPBiCGStab:  Solving for epsilon, Initial residual = 0, Final residual = 0, No Iterations 0
DILUPBiCGStab:  Solving for k, Initial residual = 0.00168294, Final residual = 4.3957e-05, No Iterations 1
ExecutionTime = 3.54 s  ClockTime = 4 s

Time = 65

DILUPBiCGStab:  Solving for Ux, Initial residual = 0.00256636, Final residual = 0.000206033, No Iterations 1
DILUPBiCGStab:  Solving for Uy, Initial residual = 0.004144, Final residual = 3.07853e-05, No Iterations 1
DILUPBiCGStab:  Solving for Uz, Initial residual = 0.0196808, Final residual = 0.00110218, No Iterations 1
DILUPBiCGStab:  Solving for e, Initial residual = 0.00495192, Final residual = 7.5256e-06, No Iterations 1
DICPCG:  Solving for p_rgh, Initial residual = 0.0668399, Final residual = 0.000666694, No Iterations 43
time step continuity errors : sum local = 8.76285, global = -0.330981, cumulative = -3.65528
DILUPBiCGStab:  Solving for epsilon, Initial residual = 0, Final residual = 0, No Iterations 0
DILUPBiCGStab:  Solving for k, Initial residual = 0.00165389, Final residual = 4.75769e-05, No Iterations 1
ExecutionTime = 3.57 s  ClockTime = 4 s

Time = 66

DILUPBiCGStab:  Solving for Ux, Initial residual = 0.00254563, Final residual = 0.00020374, No Iterations 1
DILUPBiCGStab:  Solving for Uy, Initial residual = 0.00417096, Final residual = 3.08512e-05, No Iterations 1
DILUPBiCGStab:  Solving for Uz, Initial residual = 0.019464, Final residual = 0.00115156, No Iterations 1
DILUPBiCGStab:  Solving for e, Initial residual = 0.00489151, Final residual = 6.80112e-06, No Iterations 1
DICPCG:  Solving for p_rgh, Initial residual = 0.0673617, Final residual = 0.000667622, No Iterations 110
time step continuity errors : sum local = 8.76625, global = -0.033683, cumulative = -3.68896
DILUPBiCGStab:  Solving for epsilon, Initial residual = 0, Final residual = 0, No Iterations 0
DILUPBiCGStab:  Solving for k, Initial residual = 0.00162591, Final residual = 5.17479e-05, No Iterations 1
ExecutionTime = 3.61 s  ClockTime = 4 s

Time = 67

DILUPBiCGStab:  Solving for Ux, Initial residual = 0.00252683, Final residual = 0.000201984, No Iterations 1
DILUPBiCGStab:  Solving for Uy, Initial residual = 0.00417397, Final residual = 0.000414467, No Iterations 1
DILUPBiCGStab:  Solving for Uz, Initial residual = 0.0195711, Final residual = 0.00112781, No Iterations 1
DILUPBiCGStab:  Solving for e, Initial residual = 0.00483273, Final residual = 6.18454e-06, No Iterations 1
DICPCG:  Solving for p_rgh, Initial residual = 0.065614, Final residual = 0.000655335, No Iterations 111
time step continuity errors : sum local = 8.59333, global = -0.435554, cumulative = -4.12452
DILUPBiCGStab:  Solving for epsilon, Initial residual = 0, Final residual = 0, No Iterations 0
DILUPBiCGStab:  Solving for k, Initial residual = 0.00159908, Final residual = 5.65349e-05, No Iterations 1
ExecutionTime = 3.65 s  ClockTime = 4 s

Time = 68

DILUPBiCGStab:  Solving for Ux, Initial residual = 0.00251627, Final residual = 0.000198703, No Iterations 1
DILUPBiCGStab:  Solving for Uy, Initial residual = 0.0040756, Final residual = 2.95668e-05, No Iterations 1
DILUPBiCGStab:  Solving for Uz, Initial residual = 0.0194952, Final residual = 0.0010709, No Iterations 1
DILUPBiCGStab:  Solving for e, Initial residual = 0.00477518, Final residual = 5.64331e-06, No Iterations 1
DICPCG:  Solving for p_rgh, Initial residual = 0.0601701, Final residual = 0.000596224, No Iterations 180
time step continuity errors : sum local = 7.82067, global = 0.0514875, cumulative = -4.07303
DILUPBiCGStab:  Solving for epsilon, Initial residual = 0, Final residual = 0, No Iterations 0
DILUPBiCGStab:  Solving for k, Initial residual = 0.00157364, Final residual = 6.22365e-05, No Iterations 1
ExecutionTime = 3.71 s  ClockTime = 4 s

Time = 69

DILUPBiCGStab:  Solving for Ux, Initial residual = 0.00249254, Final residual = 0.00019838, No Iterations 1
DILUPBiCGStab:  Solving for Uy, Initial residual = 0.00400509, Final residual = 0.000397284, No Iterations 1
DILUPBiCGStab:  Solving for Uz, Initial residual = 0.0196096, Final residual = 0.00100248, No Iterations 1
DILUPBiCGStab:  Solving for e, Initial residual = 0.00471895, Final residual = 5.1857e-06, No Iterations 1
DICPCG:  Solving for p_rgh, Initial residual = 0.0588906, Final residual = 0.00057935, No Iterations 57
time step continuity errors : sum local = 7.77369, global = -0.756091, cumulative = -4.82912
DILUPBiCGStab:  Solving for epsilon, Initial residual = 0, Final residual = 0, No Iterations 0
DILUPBiCGStab:  Solving for k, Initial residual = 0.00154855, Final residual = 6.83279e-05, No Iterations 1
ExecutionTime = 3.74 s  ClockTime = 4 s

Time = 70

DILUPBiCGStab:  Solving for Ux, Initial residual = 0.00246127, Final residual = 0.000195714, No Iterations 1
DILUPBiCGStab:  Solving for Uy, Initial residual = 0.00394264, Final residual = 0.000393951, No Iterations 1
DILUPBiCGStab:  Solving for Uz, Initial residual = 0.0196978, Final residual = 0.00105186, No Iterations 1
DILUPBiCGStab:  Solving for e, Initial residual = 0.00466604, Final residual = 4.80717e-06, No Iterations 1
DICPCG:  Solving for p_rgh, Initial residual = 0.0586969, Final residual = 0.000558816, No Iterations 58
time step continuity errors : sum local = 7.49507, global = -0.783802, cumulative = -5.61292
DILUPBiCGStab:  Solving for epsilon, Initial residual = 0, Final residual = 0, No Iterations 0
DILUPBiCGStab:  Solving for k, Initial residual = 0.00152451, Final residual = 7.51044e-05, No Iterations 1
ExecutionTime = 3.77 s  ClockTime = 4 s

Time = 71

DILUPBiCGStab:  Solving for Ux, Initial residual = 0.00243181, Final residual = 0.000194418, No Iterations 1
DILUPBiCGStab:  Solving for Uy, Initial residual = 0.00390908, Final residual = 2.8037e-05, No Iterations 1
DILUPBiCGStab:  Solving for Uz, Initial residual = 0.0196277, Final residual = 0.0010675, No Iterations 1
DILUPBiCGStab:  Solving for e, Initial residual = 0.00461322, Final residual = 4.47718e-06, No Iterations 1
DICPCG:  Solving for p_rgh, Initial residual = 0.0566246, Final residual = 0.000543144, No Iterations 155
time step continuity errors : sum local = 7.23345, global = -0.519491, cumulative = -6.13241
DILUPBiCGStab:  Solving for epsilon, Initial residual = 0, Final residual = 0, No Iterations 0
DILUPBiCGStab:  Solving for k, Initial residual = 0.00150168, Final residual = 8.25678e-05, No Iterations 1
ExecutionTime = 3.82 s  ClockTime = 4 s

Time = 72

DILUPBiCGStab:  Solving for Ux, Initial residual = 0.00240722, Final residual = 0.000195173, No Iterations 1
DILUPBiCGStab:  Solving for Uy, Initial residual = 0.00394686, Final residual = 0.000387754, No Iterations 1
DILUPBiCGStab:  Solving for Uz, Initial residual = 0.0194818, Final residual = 0.00102646, No Iterations 1
DILUPBiCGStab:  Solving for e, Initial residual = 0.00456153, Final residual = 4.19564e-06, No Iterations 1
DICPCG:  Solving for p_rgh, Initial residual = 0.0559938, Final residual = 0.000512471, No Iterations 95
time step continuity errors : sum local = 6.87924, global = -0.227595, cumulative = -6.36001
DILUPBiCGStab:  Solving for epsilon, Initial residual = 0, Final residual = 0, No Iterations 0
DILUPBiCGStab:  Solving for k, Initial residual = 0.0014789, Final residual = 9.02028e-05, No Iterations 1
ExecutionTime = 3.87 s  ClockTime = 4 s

Time = 73

DILUPBiCGStab:  Solving for Ux, Initial residual = 0.00237348, Final residual = 0.000191161, No Iterations 1
DILUPBiCGStab:  Solving for Uy, Initial residual = 0.00387066, Final residual = 0.000378358, No Iterations 1
DILUPBiCGStab:  Solving for Uz, Initial residual = 0.0195669, Final residual = 0.00106655, No Iterations 1
DILUPBiCGStab:  Solving for e, Initial residual = 0.00451243, Final residual = 3.94652e-06, No Iterations 1
DICPCG:  Solving for p_rgh, Initial residual = 0.054592, Final residual = 0.00052229, No Iterations 96
time step continuity errors : sum local = 7.00528, global = 0.101568, cumulative = -6.25844
DILUPBiCGStab:  Solving for epsilon, Initial residual = 0, Final residual = 0, No Iterations 0
DILUPBiCGStab:  Solving for k, Initial residual = 0.00145575, Final residual = 9.79081e-05, No Iterations 1
ExecutionTime = 3.91 s  ClockTime = 4 s

Time = 74

DILUPBiCGStab:  Solving for Ux, Initial residual = 0.00233127, Final residual = 0.000186373, No Iterations 1
DILUPBiCGStab:  Solving for Uy, Initial residual = 0.00373144, Final residual = 0.00036948, No Iterations 1
DILUPBiCGStab:  Solving for Uz, Initial residual = 0.0195311, Final residual = 0.001105, No Iterations 1
DILUPBiCGStab:  Solving for e, Initial residual = 0.00446305, Final residual = 3.71601e-06, No Iterations 1
DICPCG:  Solving for p_rgh, Initial residual = 0.0539994, Final residual = 0.000468332, No Iterations 53
time step continuity errors : sum local = 6.25442, global = 0.603054, cumulative = -5.65539
DILUPBiCGStab:  Solving for epsilon, Initial residual = 0, Final residual = 0, No Iterations 0
DILUPBiCGStab:  Solving for k, Initial residual = 0.00143257, Final residual = 0.000105505, No Iterations 1
ExecutionTime = 3.94 s  ClockTime = 4 s

Time = 75

DILUPBiCGStab:  Solving for Ux, Initial residual = 0.00231232, Final residual = 0.000183065, No Iterations 1
DILUPBiCGStab:  Solving for Uy, Initial residual = 0.00361014, Final residual = 0.000359556, No Iterations 1
DILUPBiCGStab:  Solving for Uz, Initial residual = 0.0195779, Final residual = 0.00114437, No Iterations 1
DILUPBiCGStab:  Solving for e, Initial residual = 0.00441616, Final residual = 3.51232e-06, No Iterations 1
DICPCG:  Solving for p_rgh, Initial residual = 0.0530525, Final residual = 0.000529954, No Iterations 53
time step continuity errors : sum local = 7.04047, global = 1.23647, cumulative = -4.41892
DILUPBiCGStab:  Solving for epsilon, Initial residual = 0, Final residual = 0, No Iterations 0
DILUPBiCGStab:  Solving for k, Initial residual = 0.00140949, Final residual = 0.00011265, No Iterations 1
ExecutionTime = 3.97 s  ClockTime = 4 s

Time = 76

DILUPBiCGStab:  Solving for Ux, Initial residual = 0.00229277, Final residual = 0.000180296, No Iterations 1
DILUPBiCGStab:  Solving for Uy, Initial residual = 0.00353141, Final residual = 0.000350039, No Iterations 1
DILUPBiCGStab:  Solving for Uz, Initial residual = 0.0196916, Final residual = 0.00115953, No Iterations 1
DILUPBiCGStab:  Solving for e, Initial residual = 0.00437031, Final residual = 3.32734e-06, No Iterations 1
DICPCG:  Solving for p_rgh, Initial residual = 0.0521421, Final residual = 0.000501383, No Iterations 178
time step continuity errors : sum local = 6.63385, global = -0.224088, cumulative = -4.64301
DILUPBiCGStab:  Solving for epsilon, Initial residual = 0, Final residual = 0, No Iterations 0
DILUPBiCGStab:  Solving for k, Initial residual = 0.00138678, Final residual = 0.000118931, No Iterations 1
ExecutionTime = 4.03 s  ClockTime = 4 s

Time = 77

DILUPBiCGStab:  Solving for Ux, Initial residual = 0.00226739, Final residual = 0.000176679, No Iterations 1
DILUPBiCGStab:  Solving for Uy, Initial residual = 0.00349115, Final residual = 0.00034076, No Iterations 1
DILUPBiCGStab:  Solving for Uz, Initial residual = 0.0199649, Final residual = 0.001138, No Iterations 1
DILUPBiCGStab:  Solving for e, Initial residual = 0.00432673, Final residual = 3.16139e-06, No Iterations 1
DICPCG:  Solving for p_rgh, Initial residual = 0.0525854, Final residual = 0.000525038, No Iterations 50
time step continuity errors : sum local = 6.77055, global = 0.0706796, cumulative = -4.57233
DILUPBiCGStab:  Solving for epsilon, Initial residual = 0, Final residual = 0, No Iterations 0
DILUPBiCGStab:  Solving for k, Initial residual = 0.00136346, Final residual = 0.000123877, No Iterations 1
ExecutionTime = 4.06 s  ClockTime = 4 s

Time = 78

DILUPBiCGStab:  Solving for Ux, Initial residual = 0.00225383, Final residual = 0.000174047, No Iterations 1
DILUPBiCGStab:  Solving for Uy, Initial residual = 0.00343741, Final residual = 0.000329172, No Iterations 1
DILUPBiCGStab:  Solving for Uz, Initial residual = 0.0199779, Final residual = 0.00117362, No Iterations 1
DILUPBiCGStab:  Solving for e, Initial residual = 0.00428195, Final residual = 2.99191e-06, No Iterations 1
DICPCG:  Solving for p_rgh, Initial residual = 0.0509444, Final residual = 0.000494522, No Iterations 179
time step continuity errors : sum local = 6.35947, global = -0.0806628, cumulative = -4.65299
DILUPBiCGStab:  Solving for epsilon, Initial residual = 0, Final residual = 0, No Iterations 0
DILUPBiCGStab:  Solving for k, Initial residual = 0.00134099, Final residual = 0.000127191, No Iterations 1
ExecutionTime = 4.12 s  ClockTime = 4 s

Time = 79

DILUPBiCGStab:  Solving for Ux, Initial residual = 0.00225152, Final residual = 0.000172417, No Iterations 1
DILUPBiCGStab:  Solving for Uy, Initial residual = 0.00336982, Final residual = 0.000320942, No Iterations 1
DILUPBiCGStab:  Solving for Uz, Initial residual = 0.0202212, Final residual = 0.00116605, No Iterations 1
DILUPBiCGStab:  Solving for e, Initial residual = 0.00423895, Final residual = 2.83402e-06, No Iterations 1
DICPCG:  Solving for p_rgh, Initial residual = 0.050212, Final residual = 0.000496065, No Iterations 49
time step continuity errors : sum local = 6.43285, global = -0.71985, cumulative = -5.37284
DILUPBiCGStab:  Solving for epsilon, Initial residual = 0, Final residual = 0, No Iterations 0
DILUPBiCGStab:  Solving for k, Initial residual = 0.00131875, Final residual = 0.000128678, No Iterations 1
ExecutionTime = 4.15 s  ClockTime = 4 s

Time = 80

DILUPBiCGStab:  Solving for Ux, Initial residual = 0.0022489, Final residual = 0.000170066, No Iterations 1
DILUPBiCGStab:  Solving for Uy, Initial residual = 0.00330383, Final residual = 0.000312642, No Iterations 1
DILUPBiCGStab:  Solving for Uz, Initial residual = 0.0206008, Final residual = 0.00116829, No Iterations 1
DILUPBiCGStab:  Solving for e, Initial residual = 0.00419727, Final residual = 2.69117e-06, No Iterations 1
DICPCG:  Solving for p_rgh, Initial residual = 0.0506721, Final residual = 0.000503329, No Iterations 51
time step continuity errors : sum local = 6.51646, global = -0.55, cumulative = -5.92284
DILUPBiCGStab:  Solving for epsilon, Initial residual = 0, Final residual = 0, No Iterations 0
DILUPBiCGStab:  Solving for k, Initial residual = 0.00129769, Final residual = 0.000128169, No Iterations 1
ExecutionTime = 4.18 s  ClockTime = 5 s

Time = 81

DILUPBiCGStab:  Solving for Ux, Initial residual = 0.00225541, Final residual = 0.000168607, No Iterations 1
DILUPBiCGStab:  Solving for Uy, Initial residual = 0.00323251, Final residual = 0.000301016, No Iterations 1
DILUPBiCGStab:  Solving for Uz, Initial residual = 0.0209371, Final residual = 0.00116471, No Iterations 1
DILUPBiCGStab:  Solving for e, Initial residual = 0.00415652, Final residual = 2.5568e-06, No Iterations 1
DICPCG:  Solving for p_rgh, Initial residual = 0.0533453, Final residual = 0.000506781, No Iterations 164
time step continuity errors : sum local = 6.5203, global = -0.626807, cumulative = -6.54964
DILUPBiCGStab:  Solving for epsilon, Initial residual = 0, Final residual = 0, No Iterations 0
DILUPBiCGStab:  Solving for k, Initial residual = 0.00127817, Final residual = 0.000125654, No Iterations 1
ExecutionTime = 4.23 s  ClockTime = 5 s

Time = 82

DILUPBiCGStab:  Solving for Ux, Initial residual = 0.00227963, Final residual = 0.00016896, No Iterations 1
DILUPBiCGStab:  Solving for Uy, Initial residual = 0.00320316, Final residual = 0.000292611, No Iterations 1
DILUPBiCGStab:  Solving for Uz, Initial residual = 0.0210859, Final residual = 0.00112085, No Iterations 1
DILUPBiCGStab:  Solving for e, Initial residual = 0.0041174, Final residual = 2.42661e-06, No Iterations 1
DICPCG:  Solving for p_rgh, Initial residual = 0.053159, Final residual = 0.000506753, No Iterations 133
time step continuity errors : sum local = 6.56018, global = -0.589665, cumulative = -7.13931
DILUPBiCGStab:  Solving for epsilon, Initial residual = 0, Final residual = 0, No Iterations 0
DILUPBiCGStab:  Solving for k, Initial residual = 0.00125897, Final residual = 0.000121448, No Iterations 1
ExecutionTime = 4.28 s  ClockTime = 5 s

Time = 83

DILUPBiCGStab:  Solving for Ux, Initial residual = 0.00226206, Final residual = 0.000165865, No Iterations 1
DILUPBiCGStab:  Solving for Uy, Initial residual = 0.00319347, Final residual = 0.000282699, No Iterations 1
DILUPBiCGStab:  Solving for Uz, Initial residual = 0.020713, Final residual = 0.0011132, No Iterations 1
DILUPBiCGStab:  Solving for e, Initial residual = 0.00407859, Final residual = 2.3209e-06, No Iterations 1
DICPCG:  Solving for p_rgh, Initial residual = 0.0497261, Final residual = 0.000487491, No Iterations 52
time step continuity errors : sum local = 6.3215, global = -0.656845, cumulative = -7.79616
DILUPBiCGStab:  Solving for epsilon, Initial residual = 0, Final residual = 0, No Iterations 0
DILUPBiCGStab:  Solving for k, Initial residual = 0.00124069, Final residual = 0.000115589, No Iterations 1
ExecutionTime = 4.31 s  ClockTime = 5 s

Time = 84

DILUPBiCGStab:  Solving for Ux, Initial residual = 0.002264, Final residual = 0.00016394, No Iterations 1
DILUPBiCGStab:  Solving for Uy, Initial residual = 0.00313768, Final residual = 0.000272683, No Iterations 1
DILUPBiCGStab:  Solving for Uz, Initial residual = 0.0208781, Final residual = 0.00109818, No Iterations 1
DILUPBiCGStab:  Solving for e, Initial residual = 0.00404026, Final residual = 2.19506e-06, No Iterations 1
DICPCG:  Solving for p_rgh, Initial residual = 0.0487852, Final residual = 0.000479364, No Iterations 70
time step continuity errors : sum local = 6.19592, global = 0.261941, cumulative = -7.53421
DILUPBiCGStab:  Solving for epsilon, Initial residual = 0, Final residual = 0, No Iterations 0
DILUPBiCGStab:  Solving for k, Initial residual = 0.0012237, Final residual = 0.000108555, No Iterations 1
ExecutionTime = 4.35 s  ClockTime = 5 s

Time = 85

DILUPBiCGStab:  Solving for Ux, Initial residual = 0.00227784, Final residual = 0.000162626, No Iterations 1
DILUPBiCGStab:  Solving for Uy, Initial residual = 0.00308962, Final residual = 0.000264611, No Iterations 1
DILUPBiCGStab:  Solving for Uz, Initial residual = 0.0209464, Final residual = 0.00111796, No Iterations 1
DILUPBiCGStab:  Solving for e, Initial residual = 0.00400369, Final residual = 2.08354e-06, No Iterations 1
DICPCG:  Solving for p_rgh, Initial residual = 0.0481157, Final residual = 0.000468339, No Iterations 142
time step continuity errors : sum local = 6.04121, global = -0.133758, cumulative = -7.66797
DILUPBiCGStab:  Solving for epsilon, Initial residual = 0, Final residual = 0, No Iterations 0
DILUPBiCGStab:  Solving for k, Initial residual = 0.00120804, Final residual = 0.000100806, No Iterations 1
ExecutionTime = 4.41 s  ClockTime = 5 s

Time = 86

DILUPBiCGStab:  Solving for Ux, Initial residual = 0.00228641, Final residual = 0.000160596, No Iterations 1
DILUPBiCGStab:  Solving for Uy, Initial residual = 0.00304185, Final residual = 0.000254417, No Iterations 1
DILUPBiCGStab:  Solving for Uz, Initial residual = 0.0214756, Final residual = 0.00124573, No Iterations 1
DILUPBiCGStab:  Solving for e, Initial residual = 0.00396846, Final residual = 1.98464e-06, No Iterations 1
DICPCG:  Solving for p_rgh, Initial residual = 0.0472494, Final residual = 0.00046829, No Iterations 56
time step continuity errors : sum local = 5.95498, global = 0.131315, cumulative = -7.53666
DILUPBiCGStab:  Solving for epsilon, Initial residual = 0, Final residual = 0, No Iterations 0
DILUPBiCGStab:  Solving for k, Initial residual = 0.00119292, Final residual = 9.27154e-05, No Iterations 1
ExecutionTime = 4.44 s  ClockTime = 5 s

Time = 87

DILUPBiCGStab:  Solving for Ux, Initial residual = 0.0022801, Final residual = 0.000158083, No Iterations 1
DILUPBiCGStab:  Solving for Uy, Initial residual = 0.00299932, Final residual = 0.000245494, No Iterations 1
DILUPBiCGStab:  Solving for Uz, Initial residual = 0.0213225, Final residual = 0.00110492, No Iterations 1
DILUPBiCGStab:  Solving for e, Initial residual = 0.00393281, Final residual = 1.89219e-06, No Iterations 1
DICPCG:  Solving for p_rgh, Initial residual = 0.0462282, Final residual = 0.000461172, No Iterations 88
time step continuity errors : sum local = 5.84762, global = -0.54855, cumulative = -8.08521
DILUPBiCGStab:  Solving for epsilon, Initial residual = 0, Final residual = 0, No Iterations 0
DILUPBiCGStab:  Solving for k, Initial residual = 0.0011785, Final residual = 8.44862e-05, No Iterations 1
ExecutionTime = 4.48 s  ClockTime = 5 s

Time = 88

DILUPBiCGStab:  Solving for Ux, Initial residual = 0.00228452, Final residual = 0.000156682, No Iterations 1
DILUPBiCGStab:  Solving for Uy, Initial residual = 0.00294889, Final residual = 0.000235735, No Iterations 1
DILUPBiCGStab:  Solving for Uz, Initial residual = 0.0209685, Final residual = 0.00106549, No Iterations 1
DILUPBiCGStab:  Solving for e, Initial residual = 0.00389852, Final residual = 1.80712e-06, No Iterations 1
DICPCG:  Solving for p_rgh, Initial residual = 0.0451095, Final residual = 0.000444518, No Iterations 116
time step continuity errors : sum local = 5.62803, global = -0.303917, cumulative = -8.38912
DILUPBiCGStab:  Solving for epsilon, Initial residual = 0, Final residual = 0, No Iterations 0
DILUPBiCGStab:  Solving for k, Initial residual = 0.00116466, Final residual = 7.65873e-05, No Iterations 1
[...]
DILUPBiCGStab:  Solving for k, Initial residual = 9.72839e-06, Final residual = 9.72839e-06, No Iterations 0
ExecutionTime = 38.68 s  ClockTime = 40 s

Time = 979

DILUPBiCGStab:  Solving for Ux, Initial residual = 2.97881e-10, Final residual = 2.97881e-10, No Iterations 0
DILUPBiCGStab:  Solving for Uy, Initial residual = 6.11512e-10, Final residual = 6.11512e-10, No Iterations 0
DILUPBiCGStab:  Solving for Uz, Initial residual = 0.000568282, Final residual = 2.80176e-06, No Iterations 1
DILUPBiCGStab:  Solving for e, Initial residual = 9.67901e-06, Final residual = 9.67901e-06, No Iterations 0
DICPCG:  Solving for p_rgh, Initial residual = 1.00475e-08, Final residual = 8.45933e-09, No Iterations 2
time step continuity errors : sum local = 9.54373e-05, global = 6.11635e-06, cumulative = -10.661
DILUPBiCGStab:  Solving for epsilon, Initial residual = 0, Final residual = 0, No Iterations 0
DILUPBiCGStab:  Solving for k, Initial residual = 9.72839e-06, Final residual = 9.72839e-06, No Iterations 0
ExecutionTime = 38.7 s  ClockTime = 40 s

Time = 980

DILUPBiCGStab:  Solving for Ux, Initial residual = 2.99802e-10, Final residual = 2.99802e-10, No Iterations 0
DILUPBiCGStab:  Solving for Uy, Initial residual = 5.62925e-10, Final residual = 5.62925e-10, No Iterations 0
DILUPBiCGStab:  Solving for Uz, Initial residual = 0.000570083, Final residual = 2.59014e-06, No Iterations 1
DILUPBiCGStab:  Solving for e, Initial residual = 9.67902e-06, Final residual = 9.67902e-06, No Iterations 0
DICPCG:  Solving for p_rgh, Initial residual = 7.88791e-09, Final residual = 7.88791e-09, No Iterations 0
time step continuity errors : sum local = 8.89907e-05, global = 5.94172e-06, cumulative = -10.661
DILUPBiCGStab:  Solving for epsilon, Initial residual = 0, Final residual = 0, No Iterations 0
DILUPBiCGStab:  Solving for k, Initial residual = 9.72838e-06, Final residual = 9.72838e-06, No Iterations 0
ExecutionTime = 38.72 s  ClockTime = 40 s

Time = 981

DILUPBiCGStab:  Solving for Ux, Initial residual = 2.98831e-10, Final residual = 2.98831e-10, No Iterations 0
DILUPBiCGStab:  Solving for Uy, Initial residual = 5.62589e-10, Final residual = 5.62589e-10, No Iterations 0
DILUPBiCGStab:  Solving for Uz, Initial residual = 0.000576801, Final residual = 2.66184e-06, No Iterations 1
DILUPBiCGStab:  Solving for e, Initial residual = 9.67901e-06, Final residual = 9.67901e-06, No Iterations 0
DICPCG:  Solving for p_rgh, Initial residual = 9.24593e-09, Final residual = 9.24593e-09, No Iterations 0
time step continuity errors : sum local = 0.000104312, global = 5.04499e-06, cumulative = -10.661
DILUPBiCGStab:  Solving for epsilon, Initial residual = 0, Final residual = 0, No Iterations 0
DILUPBiCGStab:  Solving for k, Initial residual = 9.72838e-06, Final residual = 9.72838e-06, No Iterations 0
ExecutionTime = 38.74 s  ClockTime = 40 s

Time = 982

DILUPBiCGStab:  Solving for Ux, Initial residual = 2.97774e-10, Final residual = 2.97774e-10, No Iterations 0
DILUPBiCGStab:  Solving for Uy, Initial residual = 5.61812e-10, Final residual = 5.61812e-10, No Iterations 0
DILUPBiCGStab:  Solving for Uz, Initial residual = 0.000575983, Final residual = 2.77051e-06, No Iterations 1
DILUPBiCGStab:  Solving for e, Initial residual = 9.67902e-06, Final residual = 9.67902e-06, No Iterations 0
DICPCG:  Solving for p_rgh, Initial residual = 1.10843e-08, Final residual = 9.33657e-09, No Iterations 20
time step continuity errors : sum local = 0.000105334, global = 6.83662e-06, cumulative = -10.661
DILUPBiCGStab:  Solving for epsilon, Initial residual = 0, Final residual = 0, No Iterations 0
DILUPBiCGStab:  Solving for k, Initial residual = 9.72839e-06, Final residual = 9.72839e-06, No Iterations 0
ExecutionTime = 38.77 s  ClockTime = 40 s

Time = 983

DILUPBiCGStab:  Solving for Ux, Initial residual = 3.10292e-10, Final residual = 3.10292e-10, No Iterations 0
DILUPBiCGStab:  Solving for Uy, Initial residual = 5.68458e-10, Final residual = 5.68458e-10, No Iterations 0
DILUPBiCGStab:  Solving for Uz, Initial residual = 0.000563666, Final residual = 2.69009e-06, No Iterations 1
DILUPBiCGStab:  Solving for e, Initial residual = 9.6792e-06, Final residual = 9.6792e-06, No Iterations 0
DICPCG:  Solving for p_rgh, Initial residual = 8.281e-09, Final residual = 8.281e-09, No Iterations 0
time step continuity errors : sum local = 9.34254e-05, global = 4.96565e-06, cumulative = -10.661
DILUPBiCGStab:  Solving for epsilon, Initial residual = 0, Final residual = 0, No Iterations 0
DILUPBiCGStab:  Solving for k, Initial residual = 9.72838e-06, Final residual = 9.72838e-06, No Iterations 0
ExecutionTime = 38.79 s  ClockTime = 40 s

Time = 984

DILUPBiCGStab:  Solving for Ux, Initial residual = 3.11175e-10, Final residual = 3.11175e-10, No Iterations 0
DILUPBiCGStab:  Solving for Uy, Initial residual = 5.63605e-10, Final residual = 5.63605e-10, No Iterations 0
DILUPBiCGStab:  Solving for Uz, Initial residual = 0.000565466, Final residual = 2.61093e-06, No Iterations 1
DILUPBiCGStab:  Solving for e, Initial residual = 9.67902e-06, Final residual = 9.67902e-06, No Iterations 0
DICPCG:  Solving for p_rgh, Initial residual = 8.9599e-09, Final residual = 8.9599e-09, No Iterations 0
time step continuity errors : sum local = 0.000101085, global = 4.96622e-06, cumulative = -10.661
DILUPBiCGStab:  Solving for epsilon, Initial residual = 0, Final residual = 0, No Iterations 0
DILUPBiCGStab:  Solving for k, Initial residual = 9.72838e-06, Final residual = 9.72838e-06, No Iterations 0
ExecutionTime = 38.81 s  ClockTime = 40 s

Time = 985

DILUPBiCGStab:  Solving for Ux, Initial residual = 3.10188e-10, Final residual = 3.10188e-10, No Iterations 0
DILUPBiCGStab:  Solving for Uy, Initial residual = 5.63423e-10, Final residual = 5.63423e-10, No Iterations 0
DILUPBiCGStab:  Solving for Uz, Initial residual = 0.000560483, Final residual = 2.88686e-06, No Iterations 1
DILUPBiCGStab:  Solving for e, Initial residual = 9.67902e-06, Final residual = 9.67902e-06, No Iterations 0
DICPCG:  Solving for p_rgh, Initial residual = 9.94909e-09, Final residual = 9.94909e-09, No Iterations 0
time step continuity errors : sum local = 0.000112245, global = 4.99436e-06, cumulative = -10.661
DILUPBiCGStab:  Solving for epsilon, Initial residual = 0, Final residual = 0, No Iterations 0
DILUPBiCGStab:  Solving for k, Initial residual = 9.72838e-06, Final residual = 9.72838e-06, No Iterations 0
ExecutionTime = 38.84 s  ClockTime = 40 s

Time = 986

DILUPBiCGStab:  Solving for Ux, Initial residual = 3.09305e-10, Final residual = 3.09305e-10, No Iterations 0
DILUPBiCGStab:  Solving for Uy, Initial residual = 5.63321e-10, Final residual = 5.63321e-10, No Iterations 0
DILUPBiCGStab:  Solving for Uz, Initial residual = 0.00056019, Final residual = 2.61455e-06, No Iterations 1
DILUPBiCGStab:  Solving for e, Initial residual = 9.67902e-06, Final residual = 9.67902e-06, No Iterations 0
DICPCG:  Solving for p_rgh, Initial residual = 1.12053e-08, Final residual = 9.54842e-09, No Iterations 19
time step continuity errors : sum local = 0.000107724, global = 6.07645e-06, cumulative = -10.661
DILUPBiCGStab:  Solving for epsilon, Initial residual = 0, Final residual = 0, No Iterations 0
DILUPBiCGStab:  Solving for k, Initial residual = 9.72839e-06, Final residual = 9.72839e-06, No Iterations 0
ExecutionTime = 38.86 s  ClockTime = 40 s

Time = 987

DILUPBiCGStab:  Solving for Ux, Initial residual = 2.07433e-10, Final residual = 2.07433e-10, No Iterations 0
DILUPBiCGStab:  Solving for Uy, Initial residual = 5.16042e-10, Final residual = 5.16042e-10, No Iterations 0
DILUPBiCGStab:  Solving for Uz, Initial residual = 0.000566472, Final residual = 2.94362e-06, No Iterations 1
DILUPBiCGStab:  Solving for e, Initial residual = 9.67918e-06, Final residual = 9.67918e-06, No Iterations 0
DICPCG:  Solving for p_rgh, Initial residual = 8.23674e-09, Final residual = 8.23674e-09, No Iterations 0
time step continuity errors : sum local = 9.2926e-05, global = 5.66388e-06, cumulative = -10.661
DILUPBiCGStab:  Solving for epsilon, Initial residual = 0, Final residual = 0, No Iterations 0
DILUPBiCGStab:  Solving for k, Initial residual = 9.72839e-06, Final residual = 9.72839e-06, No Iterations 0
ExecutionTime = 38.88 s  ClockTime = 40 s

Time = 988

DILUPBiCGStab:  Solving for Ux, Initial residual = 2.04753e-10, Final residual = 2.04753e-10, No Iterations 0
DILUPBiCGStab:  Solving for Uy, Initial residual = 5.16997e-10, Final residual = 5.16997e-10, No Iterations 0
DILUPBiCGStab:  Solving for Uz, Initial residual = 0.000561688, Final residual = 2.74478e-06, No Iterations 1
DILUPBiCGStab:  Solving for e, Initial residual = 9.67902e-06, Final residual = 9.67902e-06, No Iterations 0
DICPCG:  Solving for p_rgh, Initial residual = 8.9372e-09, Final residual = 8.9372e-09, No Iterations 0
time step continuity errors : sum local = 0.000100829, global = 5.95838e-06, cumulative = -10.6609
DILUPBiCGStab:  Solving for epsilon, Initial residual = 0, Final residual = 0, No Iterations 0
DILUPBiCGStab:  Solving for k, Initial residual = 9.72839e-06, Final residual = 9.72839e-06, No Iterations 0
ExecutionTime = 38.91 s  ClockTime = 40 s

Time = 989

DILUPBiCGStab:  Solving for Ux, Initial residual = 2.04043e-10, Final residual = 2.04043e-10, No Iterations 0
DILUPBiCGStab:  Solving for Uy, Initial residual = 5.16352e-10, Final residual = 5.16352e-10, No Iterations 0
DILUPBiCGStab:  Solving for Uz, Initial residual = 0.000567054, Final residual = 2.65998e-06, No Iterations 1
DILUPBiCGStab:  Solving for e, Initial residual = 9.67902e-06, Final residual = 9.67902e-06, No Iterations 0
DICPCG:  Solving for p_rgh, Initial residual = 1.01773e-08, Final residual = 9.35756e-09, No Iterations 1
time step continuity errors : sum local = 0.000105571, global = 6.51798e-06, cumulative = -10.6609
DILUPBiCGStab:  Solving for epsilon, Initial residual = 0, Final residual = 0, No Iterations 0
DILUPBiCGStab:  Solving for k, Initial residual = 9.72839e-06, Final residual = 9.72839e-06, No Iterations 0
ExecutionTime = 38.93 s  ClockTime = 40 s

Time = 990

DILUPBiCGStab:  Solving for Ux, Initial residual = 2.03479e-10, Final residual = 2.03479e-10, No Iterations 0
DILUPBiCGStab:  Solving for Uy, Initial residual = 5.07467e-10, Final residual = 5.07467e-10, No Iterations 0
DILUPBiCGStab:  Solving for Uz, Initial residual = 0.000567814, Final residual = 2.58856e-06, No Iterations 1
DILUPBiCGStab:  Solving for e, Initial residual = 9.67901e-06, Final residual = 9.67901e-06, No Iterations 0
DICPCG:  Solving for p_rgh, Initial residual = 6.65638e-09, Final residual = 6.65638e-09, No Iterations 0
time step continuity errors : sum local = 7.50967e-05, global = 6.66543e-06, cumulative = -10.6609
DILUPBiCGStab:  Solving for epsilon, Initial residual = 0, Final residual = 0, No Iterations 0
DILUPBiCGStab:  Solving for k, Initial residual = 9.72839e-06, Final residual = 9.72839e-06, No Iterations 0
ExecutionTime = 38.95 s  ClockTime = 40 s

Time = 991

DILUPBiCGStab:  Solving for Ux, Initial residual = 2.03063e-10, Final residual = 2.03063e-10, No Iterations 0
DILUPBiCGStab:  Solving for Uy, Initial residual = 5.06984e-10, Final residual = 5.06984e-10, No Iterations 0
DILUPBiCGStab:  Solving for Uz, Initial residual = 0.000565713, Final residual = 2.70228e-06, No Iterations 1
DILUPBiCGStab:  Solving for e, Initial residual = 9.67902e-06, Final residual = 9.67902e-06, No Iterations 0
DICPCG:  Solving for p_rgh, Initial residual = 7.67738e-09, Final residual = 7.67738e-09, No Iterations 0
time step continuity errors : sum local = 8.66154e-05, global = 6.98666e-06, cumulative = -10.6609
DILUPBiCGStab:  Solving for epsilon, Initial residual = 0, Final residual = 0, No Iterations 0
DILUPBiCGStab:  Solving for k, Initial residual = 9.72839e-06, Final residual = 9.72839e-06, No Iterations 0
ExecutionTime = 38.97 s  ClockTime = 40 s

Time = 992

DILUPBiCGStab:  Solving for Ux, Initial residual = 2.02516e-10, Final residual = 2.02516e-10, No Iterations 0
DILUPBiCGStab:  Solving for Uy, Initial residual = 5.06603e-10, Final residual = 5.06603e-10, No Iterations 0
DILUPBiCGStab:  Solving for Uz, Initial residual = 0.000560395, Final residual = 2.65267e-06, No Iterations 1
DILUPBiCGStab:  Solving for e, Initial residual = 9.67902e-06, Final residual = 9.67902e-06, No Iterations 0
DICPCG:  Solving for p_rgh, Initial residual = 9.24996e-09, Final residual = 9.24996e-09, No Iterations 0
time step continuity errors : sum local = 0.000104357, global = 7.29354e-06, cumulative = -10.6609
DILUPBiCGStab:  Solving for epsilon, Initial residual = 0, Final residual = 0, No Iterations 0
DILUPBiCGStab:  Solving for k, Initial residual = 9.72839e-06, Final residual = 9.72839e-06, No Iterations 0
ExecutionTime = 39 s  ClockTime = 40 s

Time = 993

DILUPBiCGStab:  Solving for Ux, Initial residual = 2.0203e-10, Final residual = 2.0203e-10, No Iterations 0
DILUPBiCGStab:  Solving for Uy, Initial residual = 5.06329e-10, Final residual = 5.06329e-10, No Iterations 0
DILUPBiCGStab:  Solving for Uz, Initial residual = 0.000570714, Final residual = 2.80933e-06, No Iterations 1
DILUPBiCGStab:  Solving for e, Initial residual = 9.67902e-06, Final residual = 9.67902e-06, No Iterations 0
DICPCG:  Solving for p_rgh, Initial residual = 1.10621e-08, Final residual = 9.57977e-09, No Iterations 20
time step continuity errors : sum local = 0.000108078, global = 2.05407e-06, cumulative = -10.6609
DILUPBiCGStab:  Solving for epsilon, Initial residual = 0, Final residual = 0, No Iterations 0
DILUPBiCGStab:  Solving for k, Initial residual = 9.72839e-06, Final residual = 9.72839e-06, No Iterations 0
ExecutionTime = 39.02 s  ClockTime = 40 s

Time = 994

DILUPBiCGStab:  Solving for Ux, Initial residual = 2.52884e-10, Final residual = 2.52884e-10, No Iterations 0
DILUPBiCGStab:  Solving for Uy, Initial residual = 4.49439e-10, Final residual = 4.49439e-10, No Iterations 0
DILUPBiCGStab:  Solving for Uz, Initial residual = 0.000560959, Final residual = 2.7813e-06, No Iterations 1
DILUPBiCGStab:  Solving for e, Initial residual = 9.67922e-06, Final residual = 9.67922e-06, No Iterations 0
DICPCG:  Solving for p_rgh, Initial residual = 8.16685e-09, Final residual = 8.16685e-09, No Iterations 0
time step continuity errors : sum local = 9.21376e-05, global = 4.54857e-06, cumulative = -10.6609
DILUPBiCGStab:  Solving for epsilon, Initial residual = 0, Final residual = 0, No Iterations 0
DILUPBiCGStab:  Solving for k, Initial residual = 9.72839e-06, Final residual = 9.72839e-06, No Iterations 0
ExecutionTime = 39.04 s  ClockTime = 40 s

Time = 995

DILUPBiCGStab:  Solving for Ux, Initial residual = 2.5055e-10, Final residual = 2.5055e-10, No Iterations 0
DILUPBiCGStab:  Solving for Uy, Initial residual = 4.46647e-10, Final residual = 4.46647e-10, No Iterations 0
DILUPBiCGStab:  Solving for Uz, Initial residual = 0.000561302, Final residual = 2.66416e-06, No Iterations 1
DILUPBiCGStab:  Solving for e, Initial residual = 9.67903e-06, Final residual = 9.67903e-06, No Iterations 0
DICPCG:  Solving for p_rgh, Initial residual = 8.85693e-09, Final residual = 8.85693e-09, No Iterations 0
time step continuity errors : sum local = 9.99231e-05, global = 3.14526e-06, cumulative = -10.6609
DILUPBiCGStab:  Solving for epsilon, Initial residual = 0, Final residual = 0, No Iterations 0
DILUPBiCGStab:  Solving for k, Initial residual = 9.72839e-06, Final residual = 9.72839e-06, No Iterations 0
ExecutionTime = 39.07 s  ClockTime = 40 s

Time = 996

DILUPBiCGStab:  Solving for Ux, Initial residual = 2.49463e-10, Final residual = 2.49463e-10, No Iterations 0
DILUPBiCGStab:  Solving for Uy, Initial residual = 4.45379e-10, Final residual = 4.45379e-10, No Iterations 0
DILUPBiCGStab:  Solving for Uz, Initial residual = 0.000561044, Final residual = 2.94984e-06, No Iterations 1
DILUPBiCGStab:  Solving for e, Initial residual = 9.67903e-06, Final residual = 9.67903e-06, No Iterations 0
DICPCG:  Solving for p_rgh, Initial residual = 1.01202e-08, Final residual = 8.34706e-09, No Iterations 1
time step continuity errors : sum local = 9.41707e-05, global = 1.42422e-06, cumulative = -10.6609
DILUPBiCGStab:  Solving for epsilon, Initial residual = 0, Final residual = 0, No Iterations 0
DILUPBiCGStab:  Solving for k, Initial residual = 9.72839e-06, Final residual = 9.72839e-06, No Iterations 0
ExecutionTime = 39.09 s  ClockTime = 40 s

Time = 997

DILUPBiCGStab:  Solving for Ux, Initial residual = 2.45976e-10, Final residual = 2.45976e-10, No Iterations 0
DILUPBiCGStab:  Solving for Uy, Initial residual = 4.42442e-10, Final residual = 4.42442e-10, No Iterations 0
DILUPBiCGStab:  Solving for Uz, Initial residual = 0.000562872, Final residual = 2.72502e-06, No Iterations 1
DILUPBiCGStab:  Solving for e, Initial residual = 9.67903e-06, Final residual = 9.67903e-06, No Iterations 0
DICPCG:  Solving for p_rgh, Initial residual = 6.59842e-09, Final residual = 6.59842e-09, No Iterations 0
time step continuity errors : sum local = 7.44427e-05, global = 9.90972e-08, cumulative = -10.6609
DILUPBiCGStab:  Solving for epsilon, Initial residual = 0, Final residual = 0, No Iterations 0
DILUPBiCGStab:  Solving for k, Initial residual = 9.72839e-06, Final residual = 9.72839e-06, No Iterations 0
ExecutionTime = 39.11 s  ClockTime = 40 s

Time = 998

DILUPBiCGStab:  Solving for Ux, Initial residual = 2.44648e-10, Final residual = 2.44648e-10, No Iterations 0
DILUPBiCGStab:  Solving for Uy, Initial residual = 4.41168e-10, Final residual = 4.41168e-10, No Iterations 0
DILUPBiCGStab:  Solving for Uz, Initial residual = 0.000553611, Final residual = 2.67879e-06, No Iterations 1
DILUPBiCGStab:  Solving for e, Initial residual = 9.67903e-06, Final residual = 9.67903e-06, No Iterations 0
DICPCG:  Solving for p_rgh, Initial residual = 7.57838e-09, Final residual = 7.57838e-09, No Iterations 0
time step continuity errors : sum local = 8.54985e-05, global = -1.43501e-06, cumulative = -10.6609
DILUPBiCGStab:  Solving for epsilon, Initial residual = 0, Final residual = 0, No Iterations 0
DILUPBiCGStab:  Solving for k, Initial residual = 9.72839e-06, Final residual = 9.72839e-06, No Iterations 0
ExecutionTime = 39.13 s  ClockTime = 40 s

Time = 999

DILUPBiCGStab:  Solving for Ux, Initial residual = 2.43625e-10, Final residual = 2.43625e-10, No Iterations 0
DILUPBiCGStab:  Solving for Uy, Initial residual = 4.40287e-10, Final residual = 4.40287e-10, No Iterations 0
DILUPBiCGStab:  Solving for Uz, Initial residual = 0.000560983, Final residual = 2.64398e-06, No Iterations 1
DILUPBiCGStab:  Solving for e, Initial residual = 9.67903e-06, Final residual = 9.67903e-06, No Iterations 0
DICPCG:  Solving for p_rgh, Initial residual = 9.1093e-09, Final residual = 9.1093e-09, No Iterations 0
time step continuity errors : sum local = 0.00010277, global = -2.97427e-06, cumulative = -10.6609
DILUPBiCGStab:  Solving for epsilon, Initial residual = 0, Final residual = 0, No Iterations 0
DILUPBiCGStab:  Solving for k, Initial residual = 9.72839e-06, Final residual = 9.72839e-06, No Iterations 0
ExecutionTime = 39.16 s  ClockTime = 40 s

Time = 1000

DILUPBiCGStab:  Solving for Ux, Initial residual = 2.4265e-10, Final residual = 2.4265e-10, No Iterations 0
DILUPBiCGStab:  Solving for Uy, Initial residual = 4.39445e-10, Final residual = 4.39445e-10, No Iterations 0
DILUPBiCGStab:  Solving for Uz, Initial residual = 0.000561956, Final residual = 2.73179e-06, No Iterations 1
DILUPBiCGStab:  Solving for e, Initial residual = 9.67903e-06, Final residual = 9.67903e-06, No Iterations 0
DICPCG:  Solving for p_rgh, Initial residual = 1.08975e-08, Final residual = 9.54444e-09, No Iterations 12
time step continuity errors : sum local = 0.000107679, global = 1.59537e-07, cumulative = -10.6609
DILUPBiCGStab:  Solving for epsilon, Initial residual = 0, Final residual = 0, No Iterations 0
DILUPBiCGStab:  Solving for k, Initial residual = 9.72839e-06, Final residual = 9.72839e-06, No Iterations 0
ExecutionTime = 39.3 s  ClockTime = 40 s

End

