/*---------------------------------------------------------------------------*\
  =========                 |
  \\      /  F ield         | OpenFOAM: The Open Source CFD Toolbox
   \\    /   O peration     | Website:  https://openfoam.org
    \\  /    A nd           | Version:  8
     \\/     M anipulation  |
\*---------------------------------------------------------------------------*/
Build  : 8-1c9b5879390b
Exec   : buoyantSimpleFoam
Date   : Jan 27 2025
Time   : 14:39:07
Host   : "658dd9edf29b"
PID    : 758
I/O    : uncollated
Case   : /home/openfoam/run/180bentPipe/Re5000/q-500
nProcs : 1
sigFpe : Enabling floating point exception trapping (FOAM_SIGFPE).
fileModificationChecking : Monitoring run-time modified files using timeStampMaster (fileModificationSkew 10)
allowSystemOperations : Allowing user-supplied system call operations

// * * * * * * * * * * * * * * * * * * * * * * * * * * * * * * * * * * * * * //
Create time

Create mesh for time = 0


SIMPLE: Convergence criteria found
        p_rgh: tolerance 0.01
        U: tolerance 0.0001
        e: tolerance 0.01
        "(k|epsilon|omega)": tolerance 0.001

Reading thermophysical properties

Selecting thermodynamics package 
{
    type            heRhoThermo;
    mixture         pureMixture;
    transport       const;
    thermo          eConst;
    equationOfState Boussinesq;
    specie          specie;
    energy          sensibleInternalEnergy;
}

Reading field U

Reading/calculating face flux field phi

Creating turbulence model

Selecting turbulence model type RAS
Selecting RAS turbulence model kEpsilon
RAS
{
    RASModel        kEpsilon;
    turbulence      on;
    printCoeffs     on;
    Cmu             0.09;
    C1              1.44;
    C2              1.92;
    C3              0;
    sigmak          1;
    sigmaEps        1.3;
}

Creating thermophysical transport model

Selecting thermophysical transport type RAS
Selecting default RAS thermophysical transport model eddyDiffusivity

Reading g

Reading hRef
Calculating field g.h


Reading pRef
Reading field p_rgh

--> FOAM Warning : 
    From function const Foam::HashTable<Foam::List<int>, Foam::word>& Foam::polyBoundaryMesh::groupPatchIDs() const
    in file meshes/polyMesh/polyBoundaryMesh/polyBoundaryMesh.C at line 473
    Removing patchGroup 'wall' which clashes with patch 0 of the same name.
No MRF models present

Radiation model not active: radiationProperties not found
Selecting radiationModel none
No finite volume options present

Starting time loop

Time = 1

DILUPBiCGStab:  Solving for Ux, Initial residual = 1, Final residual = 0.0183984, No Iterations 1
DILUPBiCGStab:  Solving for Uy, Initial residual = 1, Final residual = 0.0147004, No Iterations 1
DILUPBiCGStab:  Solving for Uz, Initial residual = 1, Final residual = 0.0633915, No Iterations 1
DILUPBiCGStab:  Solving for e, Initial residual = 1, Final residual = 4.18246e-05, No Iterations 1
DICPCG:  Solving for p_rgh, Initial residual = 0.992901, Final residual = 0.00943941, No Iterations 166
time step continuity errors : sum local = 198.032, global = -0.778451, cumulative = -0.778451
DILUPBiCGStab:  Solving for epsilon, Initial residual = 0, Final residual = 0, No Iterations 0
DILUPBiCGStab:  Solving for k, Initial residual = 1, Final residual = 0.0122883, No Iterations 1
ExecutionTime = 0.25 s  ClockTime = 0 s

Time = 2

DILUPBiCGStab:  Solving for Ux, Initial residual = 0.638001, Final residual = 0.00728655, No Iterations 1
DILUPBiCGStab:  Solving for Uy, Initial residual = 0.649827, Final residual = 0.0089497, No Iterations 1
DILUPBiCGStab:  Solving for Uz, Initial residual = 0.606384, Final residual = 0.00214253, No Iterations 1
DILUPBiCGStab:  Solving for e, Initial residual = 0.201536, Final residual = 3.00309e-05, No Iterations 1
DICPCG:  Solving for p_rgh, Initial residual = 0.0502383, Final residual = 0.000493993, No Iterations 189
time step continuity errors : sum local = 332.44, global = -3.01543, cumulative = -3.79388
DILUPBiCGStab:  Solving for epsilon, Initial residual = 0, Final residual = 0, No Iterations 0
DILUPBiCGStab:  Solving for k, Initial residual = 0.212272, Final residual = 8.53086e-05, No Iterations 1
ExecutionTime = 0.3 s  ClockTime = 0 s

Time = 3

DILUPBiCGStab:  Solving for Ux, Initial residual = 0.203862, Final residual = 0.00233257, No Iterations 1
DILUPBiCGStab:  Solving for Uy, Initial residual = 0.202844, Final residual = 0.00608317, No Iterations 1
DILUPBiCGStab:  Solving for Uz, Initial residual = 0.477986, Final residual = 0.00284298, No Iterations 1
DILUPBiCGStab:  Solving for e, Initial residual = 0.123052, Final residual = 0.000673258, No Iterations 1
DICPCG:  Solving for p_rgh, Initial residual = 0.143452, Final residual = 0.00112397, No Iterations 189
time step continuity errors : sum local = 303.478, global = -1.81109, cumulative = -5.60497
DILUPBiCGStab:  Solving for epsilon, Initial residual = 0, Final residual = 0, No Iterations 0
DILUPBiCGStab:  Solving for k, Initial residual = 0.14232, Final residual = 0.0018745, No Iterations 1
ExecutionTime = 0.36 s  ClockTime = 0 s

Time = 4

DILUPBiCGStab:  Solving for Ux, Initial residual = 0.321394, Final residual = 0.0049703, No Iterations 1
DILUPBiCGStab:  Solving for Uy, Initial residual = 0.342922, Final residual = 0.00761912, No Iterations 1
DILUPBiCGStab:  Solving for Uz, Initial residual = 0.265249, Final residual = 0.0029501, No Iterations 1
DILUPBiCGStab:  Solving for e, Initial residual = 0.0988367, Final residual = 0.000335457, No Iterations 1
DICPCG:  Solving for p_rgh, Initial residual = 0.0406984, Final residual = 0.000357557, No Iterations 166
time step continuity errors : sum local = 215.716, global = 5.0436, cumulative = -0.561368
DILUPBiCGStab:  Solving for epsilon, Initial residual = 0, Final residual = 0, No Iterations 0
DILUPBiCGStab:  Solving for k, Initial residual = 0.0877695, Final residual = 0.0009989, No Iterations 1
ExecutionTime = 0.41 s  ClockTime = 0 s

Time = 5

DILUPBiCGStab:  Solving for Ux, Initial residual = 0.299392, Final residual = 0.00890911, No Iterations 1
DILUPBiCGStab:  Solving for Uy, Initial residual = 0.379945, Final residual = 0.0118793, No Iterations 1
DILUPBiCGStab:  Solving for Uz, Initial residual = 0.329793, Final residual = 0.00211245, No Iterations 1
DILUPBiCGStab:  Solving for e, Initial residual = 0.0825872, Final residual = 0.000224797, No Iterations 1
DICPCG:  Solving for p_rgh, Initial residual = 0.148795, Final residual = 0.00120635, No Iterations 180
time step continuity errors : sum local = 242.481, global = 3.34563, cumulative = 2.78426
DILUPBiCGStab:  Solving for epsilon, Initial residual = 0, Final residual = 0, No Iterations 0
DILUPBiCGStab:  Solving for k, Initial residual = 0.0705762, Final residual = 0.00118018, No Iterations 1
ExecutionTime = 0.47 s  ClockTime = 1 s

Time = 6

DILUPBiCGStab:  Solving for Ux, Initial residual = 0.103289, Final residual = 0.00489905, No Iterations 1
DILUPBiCGStab:  Solving for Uy, Initial residual = 0.219314, Final residual = 0.0159436, No Iterations 1
DILUPBiCGStab:  Solving for Uz, Initial residual = 0.207078, Final residual = 0.00377818, No Iterations 1
DILUPBiCGStab:  Solving for e, Initial residual = 0.07106, Final residual = 0.000279241, No Iterations 1
DICPCG:  Solving for p_rgh, Initial residual = 0.664789, Final residual = 0.00528318, No Iterations 205
time step continuity errors : sum local = 232.269, global = -0.355847, cumulative = 2.42841
DILUPBiCGStab:  Solving for epsilon, Initial residual = 0, Final residual = 0, No Iterations 0
DILUPBiCGStab:  Solving for k, Initial residual = 0.058132, Final residual = 0.0013335, No Iterations 1
ExecutionTime = 0.53 s  ClockTime = 1 s

Time = 7

DILUPBiCGStab:  Solving for Ux, Initial residual = 0.185213, Final residual = 0.0156504, No Iterations 1
DILUPBiCGStab:  Solving for Uy, Initial residual = 0.291168, Final residual = 0.0234155, No Iterations 1
DILUPBiCGStab:  Solving for Uz, Initial residual = 0.198426, Final residual = 0.00785646, No Iterations 1
DILUPBiCGStab:  Solving for e, Initial residual = 0.0615539, Final residual = 0.000452596, No Iterations 1
DICPCG:  Solving for p_rgh, Initial residual = 0.19146, Final residual = 0.00136985, No Iterations 204
time step continuity errors : sum local = 193.24, global = -0.108269, cumulative = 2.32014
DILUPBiCGStab:  Solving for epsilon, Initial residual = 0, Final residual = 0, No Iterations 0
DILUPBiCGStab:  Solving for k, Initial residual = 0.0469248, Final residual = 0.00110665, No Iterations 1
ExecutionTime = 0.59 s  ClockTime = 1 s

Time = 8

DILUPBiCGStab:  Solving for Ux, Initial residual = 0.15483, Final residual = 0.0136291, No Iterations 1
DILUPBiCGStab:  Solving for Uy, Initial residual = 0.227861, Final residual = 0.0190592, No Iterations 1
DILUPBiCGStab:  Solving for Uz, Initial residual = 0.14896, Final residual = 0.0068282, No Iterations 1
DILUPBiCGStab:  Solving for e, Initial residual = 0.0485865, Final residual = 0.000369425, No Iterations 1
DICPCG:  Solving for p_rgh, Initial residual = 0.232607, Final residual = 0.00181689, No Iterations 205
time step continuity errors : sum local = 246.848, global = 0.345362, cumulative = 2.66551
DILUPBiCGStab:  Solving for epsilon, Initial residual = 0, Final residual = 0, No Iterations 0
DILUPBiCGStab:  Solving for k, Initial residual = 0.0398934, Final residual = 0.00101729, No Iterations 1
ExecutionTime = 0.64 s  ClockTime = 1 s

Time = 9

DILUPBiCGStab:  Solving for Ux, Initial residual = 0.0658068, Final residual = 0.00479322, No Iterations 1
DILUPBiCGStab:  Solving for Uy, Initial residual = 0.117059, Final residual = 0.00147027, No Iterations 1
DILUPBiCGStab:  Solving for Uz, Initial residual = 0.13536, Final residual = 0.00595803, No Iterations 1
DILUPBiCGStab:  Solving for e, Initial residual = 0.0434898, Final residual = 0.000369842, No Iterations 1
DICPCG:  Solving for p_rgh, Initial residual = 0.5055, Final residual = 0.0039886, No Iterations 208
time step continuity errors : sum local = 257.974, global = -0.386925, cumulative = 2.27858
DILUPBiCGStab:  Solving for epsilon, Initial residual = 0, Final residual = 0, No Iterations 0
DILUPBiCGStab:  Solving for k, Initial residual = 0.0354157, Final residual = 0.00103002, No Iterations 1
ExecutionTime = 0.7 s  ClockTime = 1 s

Time = 10

DILUPBiCGStab:  Solving for Ux, Initial residual = 0.100234, Final residual = 0.00932767, No Iterations 1
DILUPBiCGStab:  Solving for Uy, Initial residual = 0.147804, Final residual = 0.0127796, No Iterations 1
DILUPBiCGStab:  Solving for Uz, Initial residual = 0.143576, Final residual = 0.00565152, No Iterations 1
DILUPBiCGStab:  Solving for e, Initial residual = 0.0388478, Final residual = 0.000381235, No Iterations 1
DICPCG:  Solving for p_rgh, Initial residual = 0.388488, Final residual = 0.00374683, No Iterations 102
time step continuity errors : sum local = 266.873, global = -17.4559, cumulative = -15.1773
DILUPBiCGStab:  Solving for epsilon, Initial residual = 0, Final residual = 0, No Iterations 0
DILUPBiCGStab:  Solving for k, Initial residual = 0.0318287, Final residual = 0.00106944, No Iterations 1
ExecutionTime = 0.75 s  ClockTime = 1 s

Time = 11

DILUPBiCGStab:  Solving for Ux, Initial residual = 0.0953386, Final residual = 0.00140292, No Iterations 1
DILUPBiCGStab:  Solving for Uy, Initial residual = 0.154629, Final residual = 0.0017775, No Iterations 1
DILUPBiCGStab:  Solving for Uz, Initial residual = 0.116178, Final residual = 0.00593094, No Iterations 1
DILUPBiCGStab:  Solving for e, Initial residual = 0.0317355, Final residual = 0.000268473, No Iterations 1
DICPCG:  Solving for p_rgh, Initial residual = 0.297263, Final residual = 0.0027343, No Iterations 202
time step continuity errors : sum local = 220.759, global = 1.21317, cumulative = -13.9642
DILUPBiCGStab:  Solving for epsilon, Initial residual = 0, Final residual = 0, No Iterations 0
DILUPBiCGStab:  Solving for k, Initial residual = 0.0288588, Final residual = 0.0011103, No Iterations 1
ExecutionTime = 0.81 s  ClockTime = 1 s

Time = 12

DILUPBiCGStab:  Solving for Ux, Initial residual = 0.0517846, Final residual = 0.00445933, No Iterations 1
DILUPBiCGStab:  Solving for Uy, Initial residual = 0.0971844, Final residual = 0.00107492, No Iterations 1
DILUPBiCGStab:  Solving for Uz, Initial residual = 0.0946814, Final residual = 0.00533082, No Iterations 1
DILUPBiCGStab:  Solving for e, Initial residual = 0.0286544, Final residual = 0.000209067, No Iterations 1
DICPCG:  Solving for p_rgh, Initial residual = 0.4683, Final residual = 0.00406521, No Iterations 199
time step continuity errors : sum local = 177.257, global = -0.457043, cumulative = -14.4212
DILUPBiCGStab:  Solving for epsilon, Initial residual = 0, Final residual = 0, No Iterations 0
DILUPBiCGStab:  Solving for k, Initial residual = 0.0263071, Final residual = 0.00111331, No Iterations 1
ExecutionTime = 0.87 s  ClockTime = 1 s

Time = 13

DILUPBiCGStab:  Solving for Ux, Initial residual = 0.0649642, Final residual = 0.00540924, No Iterations 1
DILUPBiCGStab:  Solving for Uy, Initial residual = 0.103067, Final residual = 0.00113486, No Iterations 1
DILUPBiCGStab:  Solving for Uz, Initial residual = 0.0818385, Final residual = 0.00486253, No Iterations 1
DILUPBiCGStab:  Solving for e, Initial residual = 0.0262027, Final residual = 0.000187917, No Iterations 1
DICPCG:  Solving for p_rgh, Initial residual = 0.212966, Final residual = 0.00168825, No Iterations 200
time step continuity errors : sum local = 133.453, global = 0.224662, cumulative = -14.1966
DILUPBiCGStab:  Solving for epsilon, Initial residual = 0, Final residual = 0, No Iterations 0
DILUPBiCGStab:  Solving for k, Initial residual = 0.0242228, Final residual = 0.00111379, No Iterations 1
ExecutionTime = 0.92 s  ClockTime = 1 s

Time = 14

DILUPBiCGStab:  Solving for Ux, Initial residual = 0.0503562, Final residual = 0.00432074, No Iterations 1
DILUPBiCGStab:  Solving for Uy, Initial residual = 0.0796972, Final residual = 0.00764432, No Iterations 1
DILUPBiCGStab:  Solving for Uz, Initial residual = 0.0845143, Final residual = 0.00429563, No Iterations 1
DILUPBiCGStab:  Solving for e, Initial residual = 0.0232903, Final residual = 0.000143653, No Iterations 1
DICPCG:  Solving for p_rgh, Initial residual = 0.253733, Final residual = 0.00216464, No Iterations 201
time step continuity errors : sum local = 138.489, global = -1.06883, cumulative = -15.2654
DILUPBiCGStab:  Solving for epsilon, Initial residual = 0, Final residual = 0, No Iterations 0
DILUPBiCGStab:  Solving for k, Initial residual = 0.0224881, Final residual = 0.00108357, No Iterations 1
ExecutionTime = 0.98 s  ClockTime = 1 s

Time = 15

DILUPBiCGStab:  Solving for Ux, Initial residual = 0.0333826, Final residual = 0.00272416, No Iterations 1
DILUPBiCGStab:  Solving for Uy, Initial residual = 0.0573991, Final residual = 0.00472244, No Iterations 1
DILUPBiCGStab:  Solving for Uz, Initial residual = 0.081637, Final residual = 0.00421895, No Iterations 1
DILUPBiCGStab:  Solving for e, Initial residual = 0.0221117, Final residual = 0.000147619, No Iterations 1
DICPCG:  Solving for p_rgh, Initial residual = 0.445303, Final residual = 0.00338807, No Iterations 201
time step continuity errors : sum local = 100.578, global = -0.236391, cumulative = -15.5018
DILUPBiCGStab:  Solving for epsilon, Initial residual = 0, Final residual = 0, No Iterations 0
DILUPBiCGStab:  Solving for k, Initial residual = 0.0210018, Final residual = 0.00102631, No Iterations 1
ExecutionTime = 1.04 s  ClockTime = 1 s

Time = 16

DILUPBiCGStab:  Solving for Ux, Initial residual = 0.0409076, Final residual = 0.00375981, No Iterations 1
DILUPBiCGStab:  Solving for Uy, Initial residual = 0.069133, Final residual = 0.00512478, No Iterations 1
DILUPBiCGStab:  Solving for Uz, Initial residual = 0.0762251, Final residual = 0.00400431, No Iterations 1
DILUPBiCGStab:  Solving for e, Initial residual = 0.0205203, Final residual = 0.000135318, No Iterations 1
DICPCG:  Solving for p_rgh, Initial residual = 0.402906, Final residual = 0.0030501, No Iterations 202
time step continuity errors : sum local = 92.7995, global = -0.057956, cumulative = -15.5597
DILUPBiCGStab:  Solving for epsilon, Initial residual = 0, Final residual = 0, No Iterations 0
DILUPBiCGStab:  Solving for k, Initial residual = 0.0196187, Final residual = 0.000965229, No Iterations 1
ExecutionTime = 1.1 s  ClockTime = 1 s

Time = 17

DILUPBiCGStab:  Solving for Ux, Initial residual = 0.0321106, Final residual = 0.00296806, No Iterations 1
DILUPBiCGStab:  Solving for Uy, Initial residual = 0.0600396, Final residual = 0.00413568, No Iterations 1
DILUPBiCGStab:  Solving for Uz, Initial residual = 0.0784116, Final residual = 0.00391964, No Iterations 1
DILUPBiCGStab:  Solving for e, Initial residual = 0.0189131, Final residual = 0.000113399, No Iterations 1
DICPCG:  Solving for p_rgh, Initial residual = 0.570517, Final residual = 0.00438567, No Iterations 202
time step continuity errors : sum local = 87.0209, global = -0.225415, cumulative = -15.7851
DILUPBiCGStab:  Solving for epsilon, Initial residual = 0, Final residual = 0, No Iterations 0
DILUPBiCGStab:  Solving for k, Initial residual = 0.0184387, Final residual = 0.000915001, No Iterations 1
ExecutionTime = 1.16 s  ClockTime = 1 s

Time = 18

DILUPBiCGStab:  Solving for Ux, Initial residual = 0.0251656, Final residual = 0.00161524, No Iterations 1
DILUPBiCGStab:  Solving for Uy, Initial residual = 0.0546927, Final residual = 0.00395106, No Iterations 1
DILUPBiCGStab:  Solving for Uz, Initial residual = 0.0774705, Final residual = 0.00373431, No Iterations 1
DILUPBiCGStab:  Solving for e, Initial residual = 0.0180256, Final residual = 0.000107692, No Iterations 1
DICPCG:  Solving for p_rgh, Initial residual = 0.218803, Final residual = 0.00201031, No Iterations 179
time step continuity errors : sum local = 87.7007, global = -0.614791, cumulative = -16.3999
DILUPBiCGStab:  Solving for epsilon, Initial residual = 0, Final residual = 0, No Iterations 0
DILUPBiCGStab:  Solving for k, Initial residual = 0.017453, Final residual = 0.000881409, No Iterations 1
ExecutionTime = 1.21 s  ClockTime = 1 s

Time = 19

DILUPBiCGStab:  Solving for Ux, Initial residual = 0.0275042, Final residual = 0.00170451, No Iterations 1
DILUPBiCGStab:  Solving for Uy, Initial residual = 0.0498303, Final residual = 0.00399555, No Iterations 1
DILUPBiCGStab:  Solving for Uz, Initial residual = 0.0731284, Final residual = 0.00366829, No Iterations 1
DILUPBiCGStab:  Solving for e, Initial residual = 0.0170494, Final residual = 0.000102969, No Iterations 1
DICPCG:  Solving for p_rgh, Initial residual = 0.223596, Final residual = 0.00174323, No Iterations 204
time step continuity errors : sum local = 69.1433, global = 0.0043212, cumulative = -16.3956
DILUPBiCGStab:  Solving for epsilon, Initial residual = 0, Final residual = 0, No Iterations 0
DILUPBiCGStab:  Solving for k, Initial residual = 0.016748, Final residual = 0.00085576, No Iterations 1
ExecutionTime = 1.27 s  ClockTime = 1 s

Time = 20

DILUPBiCGStab:  Solving for Ux, Initial residual = 0.0232214, Final residual = 0.00172372, No Iterations 1
DILUPBiCGStab:  Solving for Uy, Initial residual = 0.0352476, Final residual = 0.00282928, No Iterations 1
DILUPBiCGStab:  Solving for Uz, Initial residual = 0.0740942, Final residual = 0.00360395, No Iterations 1
DILUPBiCGStab:  Solving for e, Initial residual = 0.0161373, Final residual = 9.48699e-05, No Iterations 1
DICPCG:  Solving for p_rgh, Initial residual = 0.275097, Final residual = 0.00270247, No Iterations 175
time step continuity errors : sum local = 84.4365, global = -1.0374, cumulative = -17.433
DILUPBiCGStab:  Solving for epsilon, Initial residual = 0, Final residual = 0, No Iterations 0
DILUPBiCGStab:  Solving for k, Initial residual = 0.0161158, Final residual = 0.000812109, No Iterations 1
ExecutionTime = 1.32 s  ClockTime = 1 s

Time = 21

DILUPBiCGStab:  Solving for Ux, Initial residual = 0.0217326, Final residual = 0.00191418, No Iterations 1
DILUPBiCGStab:  Solving for Uy, Initial residual = 0.0349446, Final residual = 0.00266767, No Iterations 1
DILUPBiCGStab:  Solving for Uz, Initial residual = 0.0748685, Final residual = 0.0031508, No Iterations 1
DILUPBiCGStab:  Solving for e, Initial residual = 0.0154199, Final residual = 8.63207e-05, No Iterations 1
DICPCG:  Solving for p_rgh, Initial residual = 0.33803, Final residual = 0.00293265, No Iterations 202
time step continuity errors : sum local = 64.9025, global = -0.0592257, cumulative = -17.4922
DILUPBiCGStab:  Solving for epsilon, Initial residual = 0, Final residual = 0, No Iterations 0
DILUPBiCGStab:  Solving for k, Initial residual = 0.0154928, Final residual = 0.000791294, No Iterations 1
ExecutionTime = 1.38 s  ClockTime = 1 s

Time = 22

DILUPBiCGStab:  Solving for Ux, Initial residual = 0.021089, Final residual = 0.00201696, No Iterations 1
DILUPBiCGStab:  Solving for Uy, Initial residual = 0.0371661, Final residual = 0.00280377, No Iterations 1
DILUPBiCGStab:  Solving for Uz, Initial residual = 0.0679576, Final residual = 0.00312174, No Iterations 1
DILUPBiCGStab:  Solving for e, Initial residual = 0.0147484, Final residual = 8.33559e-05, No Iterations 1
DICPCG:  Solving for p_rgh, Initial residual = 0.368005, Final residual = 0.00328769, No Iterations 192
time step continuity errors : sum local = 62.3127, global = -0.55755, cumulative = -18.0498
DILUPBiCGStab:  Solving for epsilon, Initial residual = 0, Final residual = 0, No Iterations 0
DILUPBiCGStab:  Solving for k, Initial residual = 0.0150353, Final residual = 0.000799737, No Iterations 1
ExecutionTime = 1.44 s  ClockTime = 1 s

Time = 23

DILUPBiCGStab:  Solving for Ux, Initial residual = 0.0178946, Final residual = 0.00169744, No Iterations 1
DILUPBiCGStab:  Solving for Uy, Initial residual = 0.035792, Final residual = 0.00273434, No Iterations 1
DILUPBiCGStab:  Solving for Uz, Initial residual = 0.0676839, Final residual = 0.00328582, No Iterations 1
DILUPBiCGStab:  Solving for e, Initial residual = 0.0141003, Final residual = 8.26405e-05, No Iterations 1
DICPCG:  Solving for p_rgh, Initial residual = 0.279973, Final residual = 0.00235412, No Iterations 171
time step continuity errors : sum local = 51.5369, global = 0.113047, cumulative = -17.9367
DILUPBiCGStab:  Solving for epsilon, Initial residual = 0, Final residual = 0, No Iterations 0
DILUPBiCGStab:  Solving for k, Initial residual = 0.0147184, Final residual = 0.000817006, No Iterations 1
ExecutionTime = 1.49 s  ClockTime = 2 s

Time = 24

DILUPBiCGStab:  Solving for Ux, Initial residual = 0.0166217, Final residual = 0.00137702, No Iterations 1
DILUPBiCGStab:  Solving for Uy, Initial residual = 0.0385794, Final residual = 0.00306846, No Iterations 1
DILUPBiCGStab:  Solving for Uz, Initial residual = 0.060194, Final residual = 0.00286909, No Iterations 1
DILUPBiCGStab:  Solving for e, Initial residual = 0.0135335, Final residual = 8.49808e-05, No Iterations 1
DICPCG:  Solving for p_rgh, Initial residual = 0.206136, Final residual = 0.00162008, No Iterations 203
time step continuity errors : sum local = 43.5661, global = -0.103572, cumulative = -18.0403
DILUPBiCGStab:  Solving for epsilon, Initial residual = 0, Final residual = 0, No Iterations 0
DILUPBiCGStab:  Solving for k, Initial residual = 0.0145588, Final residual = 0.000852146, No Iterations 1
ExecutionTime = 1.55 s  ClockTime = 2 s

Time = 25

DILUPBiCGStab:  Solving for Ux, Initial residual = 0.0159604, Final residual = 0.00126249, No Iterations 1
DILUPBiCGStab:  Solving for Uy, Initial residual = 0.038175, Final residual = 0.00313019, No Iterations 1
DILUPBiCGStab:  Solving for Uz, Initial residual = 0.0584904, Final residual = 0.0026187, No Iterations 1
DILUPBiCGStab:  Solving for e, Initial residual = 0.0129037, Final residual = 8.6395e-05, No Iterations 1
DICPCG:  Solving for p_rgh, Initial residual = 0.185275, Final residual = 0.00148235, No Iterations 205
time step continuity errors : sum local = 43.987, global = 0.0606913, cumulative = -17.9796
DILUPBiCGStab:  Solving for epsilon, Initial residual = 0, Final residual = 0, No Iterations 0
DILUPBiCGStab:  Solving for k, Initial residual = 0.0145319, Final residual = 0.000866738, No Iterations 1
ExecutionTime = 1.61 s  ClockTime = 2 s

Time = 26

DILUPBiCGStab:  Solving for Ux, Initial residual = 0.0148756, Final residual = 0.00123365, No Iterations 1
DILUPBiCGStab:  Solving for Uy, Initial residual = 0.0354576, Final residual = 0.00310263, No Iterations 1
DILUPBiCGStab:  Solving for Uz, Initial residual = 0.05662, Final residual = 0.00259566, No Iterations 1
DILUPBiCGStab:  Solving for e, Initial residual = 0.0124164, Final residual = 9.31928e-05, No Iterations 1
DICPCG:  Solving for p_rgh, Initial residual = 0.197174, Final residual = 0.00171441, No Iterations 202
time step continuity errors : sum local = 52.9136, global = 0.136044, cumulative = -17.8436
DILUPBiCGStab:  Solving for epsilon, Initial residual = 0, Final residual = 0, No Iterations 0
DILUPBiCGStab:  Solving for k, Initial residual = 0.0144584, Final residual = 0.00089079, No Iterations 1
ExecutionTime = 1.67 s  ClockTime = 2 s

Time = 27

DILUPBiCGStab:  Solving for Ux, Initial residual = 0.0151333, Final residual = 0.00133329, No Iterations 1
DILUPBiCGStab:  Solving for Uy, Initial residual = 0.0344764, Final residual = 0.00327796, No Iterations 1
DILUPBiCGStab:  Solving for Uz, Initial residual = 0.0549442, Final residual = 0.00240479, No Iterations 1
DILUPBiCGStab:  Solving for e, Initial residual = 0.012099, Final residual = 9.1651e-05, No Iterations 1
DICPCG:  Solving for p_rgh, Initial residual = 0.228084, Final residual = 0.0021774, No Iterations 82
time step continuity errors : sum local = 47.1407, global = -2.88558, cumulative = -20.7292
DILUPBiCGStab:  Solving for epsilon, Initial residual = 0, Final residual = 0, No Iterations 0
DILUPBiCGStab:  Solving for k, Initial residual = 0.0142937, Final residual = 0.000927358, No Iterations 1
ExecutionTime = 1.71 s  ClockTime = 2 s

Time = 28

DILUPBiCGStab:  Solving for Ux, Initial residual = 0.0153371, Final residual = 0.00140244, No Iterations 1
DILUPBiCGStab:  Solving for Uy, Initial residual = 0.0313416, Final residual = 0.00312651, No Iterations 1
DILUPBiCGStab:  Solving for Uz, Initial residual = 0.0540041, Final residual = 0.00238346, No Iterations 1
DILUPBiCGStab:  Solving for e, Initial residual = 0.0117215, Final residual = 9.26131e-05, No Iterations 1
DICPCG:  Solving for p_rgh, Initial residual = 0.216891, Final residual = 0.0020731, No Iterations 182
time step continuity errors : sum local = 45.4065, global = 1.65796, cumulative = -19.0712
DILUPBiCGStab:  Solving for epsilon, Initial residual = 0, Final residual = 0, No Iterations 0
DILUPBiCGStab:  Solving for k, Initial residual = 0.0140407, Final residual = 0.000963465, No Iterations 1
ExecutionTime = 1.76 s  ClockTime = 2 s

Time = 29

DILUPBiCGStab:  Solving for Ux, Initial residual = 0.0148579, Final residual = 0.00129941, No Iterations 1
DILUPBiCGStab:  Solving for Uy, Initial residual = 0.0302028, Final residual = 0.00291747, No Iterations 1
DILUPBiCGStab:  Solving for Uz, Initial residual = 0.0518823, Final residual = 0.00235372, No Iterations 1
DILUPBiCGStab:  Solving for e, Initial residual = 0.0114822, Final residual = 9.41446e-05, No Iterations 1
DICPCG:  Solving for p_rgh, Initial residual = 0.191352, Final residual = 0.00161446, No Iterations 204
time step continuity errors : sum local = 37.7858, global = -0.0610066, cumulative = -19.1322
DILUPBiCGStab:  Solving for epsilon, Initial residual = 0, Final residual = 0, No Iterations 0
DILUPBiCGStab:  Solving for k, Initial residual = 0.0137438, Final residual = 0.000998768, No Iterations 1
ExecutionTime = 1.82 s  ClockTime = 2 s

Time = 30

DILUPBiCGStab:  Solving for Ux, Initial residual = 0.0144719, Final residual = 0.00118891, No Iterations 1
DILUPBiCGStab:  Solving for Uy, Initial residual = 0.0304535, Final residual = 0.00296436, No Iterations 1
DILUPBiCGStab:  Solving for Uz, Initial residual = 0.0497896, Final residual = 0.00223432, No Iterations 1
DILUPBiCGStab:  Solving for e, Initial residual = 0.0111739, Final residual = 9.80614e-05, No Iterations 1
DICPCG:  Solving for p_rgh, Initial residual = 0.175408, Final residual = 0.00162156, No Iterations 79
time step continuity errors : sum local = 39.6451, global = 1.98383, cumulative = -17.1484
DILUPBiCGStab:  Solving for epsilon, Initial residual = 0, Final residual = 0, No Iterations 0
DILUPBiCGStab:  Solving for k, Initial residual = 0.0134139, Final residual = 0.00103506, No Iterations 1
ExecutionTime = 1.86 s  ClockTime = 2 s

Time = 31

DILUPBiCGStab:  Solving for Ux, Initial residual = 0.0141655, Final residual = 0.00113109, No Iterations 1
DILUPBiCGStab:  Solving for Uy, Initial residual = 0.0297273, Final residual = 0.000403523, No Iterations 1
DILUPBiCGStab:  Solving for Uz, Initial residual = 0.0490806, Final residual = 0.00226408, No Iterations 1
DILUPBiCGStab:  Solving for e, Initial residual = 0.0107738, Final residual = 0.000105198, No Iterations 1
DICPCG:  Solving for p_rgh, Initial residual = 0.165428, Final residual = 0.00147129, No Iterations 166
time step continuity errors : sum local = 36.8016, global = -0.256316, cumulative = -17.4047
DILUPBiCGStab:  Solving for epsilon, Initial residual = 0, Final residual = 0, No Iterations 0
DILUPBiCGStab:  Solving for k, Initial residual = 0.0130332, Final residual = 0.00106812, No Iterations 1
ExecutionTime = 1.91 s  ClockTime = 2 s

Time = 32

DILUPBiCGStab:  Solving for Ux, Initial residual = 0.0139691, Final residual = 0.00113412, No Iterations 1
DILUPBiCGStab:  Solving for Uy, Initial residual = 0.0289304, Final residual = 0.000428953, No Iterations 1
DILUPBiCGStab:  Solving for Uz, Initial residual = 0.0464207, Final residual = 0.00213723, No Iterations 1
DILUPBiCGStab:  Solving for e, Initial residual = 0.0103947, Final residual = 0.000117192, No Iterations 1
DICPCG:  Solving for p_rgh, Initial residual = 0.148162, Final residual = 0.00139005, No Iterations 201
time step continuity errors : sum local = 35.5001, global = -0.116302, cumulative = -17.521
DILUPBiCGStab:  Solving for epsilon, Initial residual = 0, Final residual = 0, No Iterations 0
DILUPBiCGStab:  Solving for k, Initial residual = 0.0125892, Final residual = 0.00108956, No Iterations 1
ExecutionTime = 1.99 s  ClockTime = 2 s

Time = 33

DILUPBiCGStab:  Solving for Ux, Initial residual = 0.0137923, Final residual = 0.00113913, No Iterations 1
DILUPBiCGStab:  Solving for Uy, Initial residual = 0.0286438, Final residual = 0.00284526, No Iterations 1
DILUPBiCGStab:  Solving for Uz, Initial residual = 0.0444407, Final residual = 0.00197118, No Iterations 1
DILUPBiCGStab:  Solving for e, Initial residual = 0.0101334, Final residual = 0.000135871, No Iterations 1
DICPCG:  Solving for p_rgh, Initial residual = 0.141787, Final residual = 0.00132581, No Iterations 45
time step continuity errors : sum local = 33.5084, global = -0.257423, cumulative = -17.7784
DILUPBiCGStab:  Solving for epsilon, Initial residual = 0, Final residual = 0, No Iterations 0
DILUPBiCGStab:  Solving for k, Initial residual = 0.0121333, Final residual = 0.00109762, No Iterations 1
ExecutionTime = 2.02 s  ClockTime = 2 s

Time = 34

DILUPBiCGStab:  Solving for Ux, Initial residual = 0.0136093, Final residual = 0.00105039, No Iterations 1
DILUPBiCGStab:  Solving for Uy, Initial residual = 0.0273417, Final residual = 0.0024999, No Iterations 1
DILUPBiCGStab:  Solving for Uz, Initial residual = 0.0421234, Final residual = 0.00185552, No Iterations 1
DILUPBiCGStab:  Solving for e, Initial residual = 0.0100338, Final residual = 0.000136219, No Iterations 1
DICPCG:  Solving for p_rgh, Initial residual = 0.146293, Final residual = 0.00133354, No Iterations 183
time step continuity errors : sum local = 31.088, global = 0.976793, cumulative = -16.8016
DILUPBiCGStab:  Solving for epsilon, Initial residual = 0, Final residual = 0, No Iterations 0
DILUPBiCGStab:  Solving for k, Initial residual = 0.0116412, Final residual = 0.00108997, No Iterations 1
ExecutionTime = 2.07 s  ClockTime = 2 s

Time = 35

DILUPBiCGStab:  Solving for Ux, Initial residual = 0.0133133, Final residual = 0.000927148, No Iterations 1
DILUPBiCGStab:  Solving for Uy, Initial residual = 0.0248739, Final residual = 0.00209183, No Iterations 1
DILUPBiCGStab:  Solving for Uz, Initial residual = 0.0401785, Final residual = 0.00171166, No Iterations 1
DILUPBiCGStab:  Solving for e, Initial residual = 0.0098265, Final residual = 0.000137122, No Iterations 1
DICPCG:  Solving for p_rgh, Initial residual = 0.143694, Final residual = 0.00118459, No Iterations 205
time step continuity errors : sum local = 26.7511, global = -0.0453615, cumulative = -16.847
DILUPBiCGStab:  Solving for epsilon, Initial residual = 0, Final residual = 0, No Iterations 0
DILUPBiCGStab:  Solving for k, Initial residual = 0.0111233, Final residual = 0.00107107, No Iterations 1
ExecutionTime = 2.13 s  ClockTime = 2 s

Time = 36

DILUPBiCGStab:  Solving for Ux, Initial residual = 0.0129402, Final residual = 0.000843237, No Iterations 1
DILUPBiCGStab:  Solving for Uy, Initial residual = 0.022532, Final residual = 0.00176912, No Iterations 1
DILUPBiCGStab:  Solving for Uz, Initial residual = 0.0383301, Final residual = 0.00161098, No Iterations 1
DILUPBiCGStab:  Solving for e, Initial residual = 0.00958383, Final residual = 0.000138199, No Iterations 1
DICPCG:  Solving for p_rgh, Initial residual = 0.135736, Final residual = 0.00134696, No Iterations 48
time step continuity errors : sum local = 30.9002, global = -4.59081, cumulative = -21.4378
DILUPBiCGStab:  Solving for epsilon, Initial residual = 0, Final residual = 0, No Iterations 0
DILUPBiCGStab:  Solving for k, Initial residual = 0.0106599, Final residual = 0.00105505, No Iterations 1
ExecutionTime = 2.16 s  ClockTime = 2 s

Time = 37

DILUPBiCGStab:  Solving for Ux, Initial residual = 0.0126956, Final residual = 0.000810971, No Iterations 1
DILUPBiCGStab:  Solving for Uy, Initial residual = 0.0210361, Final residual = 0.00174968, No Iterations 1
DILUPBiCGStab:  Solving for Uz, Initial residual = 0.0369693, Final residual = 0.00157354, No Iterations 1
DILUPBiCGStab:  Solving for e, Initial residual = 0.00935654, Final residual = 0.000136653, No Iterations 1
DICPCG:  Solving for p_rgh, Initial residual = 0.129889, Final residual = 0.00126176, No Iterations 72
time step continuity errors : sum local = 28.9351, global = -1.45125, cumulative = -22.8891
DILUPBiCGStab:  Solving for epsilon, Initial residual = 0, Final residual = 0, No Iterations 0
DILUPBiCGStab:  Solving for k, Initial residual = 0.0101499, Final residual = 0.000143133, No Iterations 1
ExecutionTime = 2.2 s  ClockTime = 2 s

Time = 38

DILUPBiCGStab:  Solving for Ux, Initial residual = 0.0124477, Final residual = 0.000799668, No Iterations 1
DILUPBiCGStab:  Solving for Uy, Initial residual = 0.0203766, Final residual = 0.00184163, No Iterations 1
DILUPBiCGStab:  Solving for Uz, Initial residual = 0.0353953, Final residual = 0.00145552, No Iterations 1
DILUPBiCGStab:  Solving for e, Initial residual = 0.00914503, Final residual = 0.000130824, No Iterations 1
DICPCG:  Solving for p_rgh, Initial residual = 0.125941, Final residual = 0.00110018, No Iterations 116
time step continuity errors : sum local = 25.5365, global = -1.66124, cumulative = -24.5503
DILUPBiCGStab:  Solving for epsilon, Initial residual = 0, Final residual = 0, No Iterations 0
DILUPBiCGStab:  Solving for k, Initial residual = 0.00970487, Final residual = 0.000136182, No Iterations 1
ExecutionTime = 2.24 s  ClockTime = 2 s

Time = 39

DILUPBiCGStab:  Solving for Ux, Initial residual = 0.0120621, Final residual = 0.000756196, No Iterations 1
DILUPBiCGStab:  Solving for Uy, Initial residual = 0.0201478, Final residual = 0.00190912, No Iterations 1
DILUPBiCGStab:  Solving for Uz, Initial residual = 0.0343037, Final residual = 0.00137596, No Iterations 1
DILUPBiCGStab:  Solving for e, Initial residual = 0.00900029, Final residual = 0.000121825, No Iterations 1
DICPCG:  Solving for p_rgh, Initial residual = 0.126824, Final residual = 0.00126213, No Iterations 91
time step continuity errors : sum local = 30.0143, global = -4.42085, cumulative = -28.9712
DILUPBiCGStab:  Solving for epsilon, Initial residual = 0, Final residual = 0, No Iterations 0
DILUPBiCGStab:  Solving for k, Initial residual = 0.00924683, Final residual = 0.000130157, No Iterations 1
ExecutionTime = 2.28 s  ClockTime = 2 s

Time = 40

DILUPBiCGStab:  Solving for Ux, Initial residual = 0.0118999, Final residual = 0.000738892, No Iterations 1
DILUPBiCGStab:  Solving for Uy, Initial residual = 0.0199519, Final residual = 0.00191212, No Iterations 1
DILUPBiCGStab:  Solving for Uz, Initial residual = 0.0336074, Final residual = 0.00136458, No Iterations 1
DILUPBiCGStab:  Solving for e, Initial residual = 0.00886414, Final residual = 0.000110319, No Iterations 1
DICPCG:  Solving for p_rgh, Initial residual = 0.116292, Final residual = 0.00103652, No Iterations 176
time step continuity errors : sum local = 25.0839, global = -0.53899, cumulative = -29.5101
DILUPBiCGStab:  Solving for epsilon, Initial residual = 0, Final residual = 0, No Iterations 0
DILUPBiCGStab:  Solving for k, Initial residual = 0.00883521, Final residual = 0.000125871, No Iterations 1
ExecutionTime = 2.34 s  ClockTime = 2 s

Time = 41

DILUPBiCGStab:  Solving for Ux, Initial residual = 0.0116965, Final residual = 0.000713235, No Iterations 1
DILUPBiCGStab:  Solving for Uy, Initial residual = 0.0194259, Final residual = 0.00182955, No Iterations 1
DILUPBiCGStab:  Solving for Uz, Initial residual = 0.0329559, Final residual = 0.00139613, No Iterations 1
DILUPBiCGStab:  Solving for e, Initial residual = 0.00870363, Final residual = 9.92777e-05, No Iterations 1
DICPCG:  Solving for p_rgh, Initial residual = 0.115897, Final residual = 0.00115612, No Iterations 58
time step continuity errors : sum local = 30.2026, global = -1.58565, cumulative = -31.0958
DILUPBiCGStab:  Solving for epsilon, Initial residual = 0, Final residual = 0, No Iterations 0
DILUPBiCGStab:  Solving for k, Initial residual = 0.00859146, Final residual = 0.000125453, No Iterations 1
ExecutionTime = 2.37 s  ClockTime = 2 s

Time = 42

DILUPBiCGStab:  Solving for Ux, Initial residual = 0.0117612, Final residual = 0.000743355, No Iterations 1
DILUPBiCGStab:  Solving for Uy, Initial residual = 0.0192375, Final residual = 0.00178151, No Iterations 1
DILUPBiCGStab:  Solving for Uz, Initial residual = 0.0311107, Final residual = 0.00151409, No Iterations 1
DILUPBiCGStab:  Solving for e, Initial residual = 0.00861746, Final residual = 8.67205e-05, No Iterations 1
DICPCG:  Solving for p_rgh, Initial residual = 0.119939, Final residual = 0.00114011, No Iterations 46
time step continuity errors : sum local = 30.2682, global = -1.23814, cumulative = -32.3339
DILUPBiCGStab:  Solving for epsilon, Initial residual = 0, Final residual = 0, No Iterations 0
DILUPBiCGStab:  Solving for k, Initial residual = 0.00837078, Final residual = 0.000124405, No Iterations 1
ExecutionTime = 2.4 s  ClockTime = 2 s

Time = 43

DILUPBiCGStab:  Solving for Ux, Initial residual = 0.0117553, Final residual = 0.000738336, No Iterations 1
DILUPBiCGStab:  Solving for Uy, Initial residual = 0.0186767, Final residual = 0.001714, No Iterations 1
DILUPBiCGStab:  Solving for Uz, Initial residual = 0.0295327, Final residual = 0.00138227, No Iterations 1
DILUPBiCGStab:  Solving for e, Initial residual = 0.00842918, Final residual = 7.00388e-05, No Iterations 1
DICPCG:  Solving for p_rgh, Initial residual = 0.124119, Final residual = 0.00120675, No Iterations 50
time step continuity errors : sum local = 31.2462, global = -0.728286, cumulative = -33.0622
DILUPBiCGStab:  Solving for epsilon, Initial residual = 0, Final residual = 0, No Iterations 0
DILUPBiCGStab:  Solving for k, Initial residual = 0.00819504, Final residual = 0.00012506, No Iterations 1
ExecutionTime = 2.43 s  ClockTime = 2 s

Time = 44

DILUPBiCGStab:  Solving for Ux, Initial residual = 0.0118404, Final residual = 0.000741835, No Iterations 1
DILUPBiCGStab:  Solving for Uy, Initial residual = 0.0188686, Final residual = 0.00161124, No Iterations 1
DILUPBiCGStab:  Solving for Uz, Initial residual = 0.0282527, Final residual = 0.00129354, No Iterations 1
DILUPBiCGStab:  Solving for e, Initial residual = 0.00822374, Final residual = 5.88257e-05, No Iterations 1
DICPCG:  Solving for p_rgh, Initial residual = 0.110302, Final residual = 0.00109605, No Iterations 101
time step continuity errors : sum local = 27.8364, global = -3.37345, cumulative = -36.4357
DILUPBiCGStab:  Solving for epsilon, Initial residual = 0, Final residual = 0, No Iterations 0
DILUPBiCGStab:  Solving for k, Initial residual = 0.00805982, Final residual = 0.000126647, No Iterations 1
ExecutionTime = 2.47 s  ClockTime = 3 s

Time = 45

DILUPBiCGStab:  Solving for Ux, Initial residual = 0.0117968, Final residual = 0.000744201, No Iterations 1
DILUPBiCGStab:  Solving for Uy, Initial residual = 0.0193139, Final residual = 0.00168117, No Iterations 1
DILUPBiCGStab:  Solving for Uz, Initial residual = 0.0271314, Final residual = 0.00127399, No Iterations 1
DILUPBiCGStab:  Solving for e, Initial residual = 0.00809195, Final residual = 4.76163e-05, No Iterations 1
DICPCG:  Solving for p_rgh, Initial residual = 0.105632, Final residual = 0.00102372, No Iterations 47
time step continuity errors : sum local = 25.6206, global = -6.418, cumulative = -42.8537
DILUPBiCGStab:  Solving for epsilon, Initial residual = 0, Final residual = 0, No Iterations 0
DILUPBiCGStab:  Solving for k, Initial residual = 0.00799305, Final residual = 0.000129631, No Iterations 1
ExecutionTime = 2.51 s  ClockTime = 3 s

Time = 46

DILUPBiCGStab:  Solving for Ux, Initial residual = 0.0116282, Final residual = 0.000739228, No Iterations 1
DILUPBiCGStab:  Solving for Uy, Initial residual = 0.0193301, Final residual = 0.00172024, No Iterations 1
DILUPBiCGStab:  Solving for Uz, Initial residual = 0.0264989, Final residual = 0.00122115, No Iterations 1
DILUPBiCGStab:  Solving for e, Initial residual = 0.00795701, Final residual = 4.15084e-05, No Iterations 1
DICPCG:  Solving for p_rgh, Initial residual = 0.105422, Final residual = 0.00103957, No Iterations 49
time step continuity errors : sum local = 26.0042, global = -8.19422, cumulative = -51.0479
DILUPBiCGStab:  Solving for epsilon, Initial residual = 0, Final residual = 0, No Iterations 0
DILUPBiCGStab:  Solving for k, Initial residual = 0.00793239, Final residual = 0.000133227, No Iterations 1
ExecutionTime = 2.54 s  ClockTime = 3 s

Time = 47

DILUPBiCGStab:  Solving for Ux, Initial residual = 0.0114924, Final residual = 0.00073858, No Iterations 1
DILUPBiCGStab:  Solving for Uy, Initial residual = 0.0193249, Final residual = 0.00177036, No Iterations 1
DILUPBiCGStab:  Solving for Uz, Initial residual = 0.0259685, Final residual = 0.00126499, No Iterations 1
DILUPBiCGStab:  Solving for e, Initial residual = 0.00789366, Final residual = 4.81216e-05, No Iterations 1
DICPCG:  Solving for p_rgh, Initial residual = 0.100866, Final residual = 0.000887739, No Iterations 206
time step continuity errors : sum local = 22.1778, global = 0.0521929, cumulative = -50.9957
DILUPBiCGStab:  Solving for epsilon, Initial residual = 0, Final residual = 0, No Iterations 0
DILUPBiCGStab:  Solving for k, Initial residual = 0.00793388, Final residual = 0.000135968, No Iterations 1
ExecutionTime = 2.6 s  ClockTime = 3 s

Time = 48

DILUPBiCGStab:  Solving for Ux, Initial residual = 0.0112092, Final residual = 0.000731726, No Iterations 1
DILUPBiCGStab:  Solving for Uy, Initial residual = 0.0195092, Final residual = 0.00184991, No Iterations 1
DILUPBiCGStab:  Solving for Uz, Initial residual = 0.0265111, Final residual = 0.00130014, No Iterations 1
DILUPBiCGStab:  Solving for e, Initial residual = 0.00790611, Final residual = 6.57785e-05, No Iterations 1
DICPCG:  Solving for p_rgh, Initial residual = 0.0925932, Final residual = 0.000880664, No Iterations 47
time step continuity errors : sum local = 23.2635, global = -2.80241, cumulative = -53.7981
DILUPBiCGStab:  Solving for epsilon, Initial residual = 0, Final residual = 0, No Iterations 0
DILUPBiCGStab:  Solving for k, Initial residual = 0.00801853, Final residual = 0.000140219, No Iterations 1
ExecutionTime = 2.63 s  ClockTime = 3 s

Time = 49

DILUPBiCGStab:  Solving for Ux, Initial residual = 0.0109932, Final residual = 0.000729311, No Iterations 1
DILUPBiCGStab:  Solving for Uy, Initial residual = 0.0196933, Final residual = 0.00189105, No Iterations 1
DILUPBiCGStab:  Solving for Uz, Initial residual = 0.0260528, Final residual = 0.00133631, No Iterations 1
DILUPBiCGStab:  Solving for e, Initial residual = 0.00795358, Final residual = 8.88958e-05, No Iterations 1
DICPCG:  Solving for p_rgh, Initial residual = 0.0871018, Final residual = 0.000769402, No Iterations 64
time step continuity errors : sum local = 20.4294, global = 0.87878, cumulative = -52.9193
DILUPBiCGStab:  Solving for epsilon, Initial residual = 0, Final residual = 0, No Iterations 0
DILUPBiCGStab:  Solving for k, Initial residual = 0.00808349, Final residual = 0.000142914, No Iterations 1
ExecutionTime = 2.67 s  ClockTime = 3 s

Time = 50

DILUPBiCGStab:  Solving for Ux, Initial residual = 0.0107138, Final residual = 0.000727762, No Iterations 1
DILUPBiCGStab:  Solving for Uy, Initial residual = 0.0199035, Final residual = 0.00190704, No Iterations 1
DILUPBiCGStab:  Solving for Uz, Initial residual = 0.0264517, Final residual = 0.00139439, No Iterations 1
DILUPBiCGStab:  Solving for e, Initial residual = 0.00801222, Final residual = 0.000120092, No Iterations 1
DICPCG:  Solving for p_rgh, Initial residual = 0.0867324, Final residual = 0.00083932, No Iterations 72
time step continuity errors : sum local = 22.4158, global = 3.12067, cumulative = -49.7986
DILUPBiCGStab:  Solving for epsilon, Initial residual = 0, Final residual = 0, No Iterations 0
DILUPBiCGStab:  Solving for k, Initial residual = 0.0082124, Final residual = 0.000145725, No Iterations 1
ExecutionTime = 2.7 s  ClockTime = 3 s

Time = 51

DILUPBiCGStab:  Solving for Ux, Initial residual = 0.0104005, Final residual = 0.000723305, No Iterations 1
DILUPBiCGStab:  Solving for Uy, Initial residual = 0.0201615, Final residual = 0.00192082, No Iterations 1
DILUPBiCGStab:  Solving for Uz, Initial residual = 0.0261596, Final residual = 0.0013821, No Iterations 1
DILUPBiCGStab:  Solving for e, Initial residual = 0.00807868, Final residual = 0.000158222, No Iterations 1
DICPCG:  Solving for p_rgh, Initial residual = 0.0936393, Final residual = 0.000789276, No Iterations 205
time step continuity errors : sum local = 21.2195, global = 0.0527477, cumulative = -49.7459
DILUPBiCGStab:  Solving for epsilon, Initial residual = 0, Final residual = 0, No Iterations 0
DILUPBiCGStab:  Solving for k, Initial residual = 0.00837784, Final residual = 0.00014881, No Iterations 1
ExecutionTime = 2.76 s  ClockTime = 3 s

Time = 52

DILUPBiCGStab:  Solving for Ux, Initial residual = 0.0102354, Final residual = 0.00071373, No Iterations 1
DILUPBiCGStab:  Solving for Uy, Initial residual = 0.0204282, Final residual = 0.00191821, No Iterations 1
DILUPBiCGStab:  Solving for Uz, Initial residual = 0.0257232, Final residual = 0.00141242, No Iterations 1
DILUPBiCGStab:  Solving for e, Initial residual = 0.00813921, Final residual = 0.000189169, No Iterations 1
DICPCG:  Solving for p_rgh, Initial residual = 0.0916866, Final residual = 0.000910651, No Iterations 56
time step continuity errors : sum local = 23.7203, global = 1.60971, cumulative = -48.1362
DILUPBiCGStab:  Solving for epsilon, Initial residual = 0, Final residual = 0, No Iterations 0
DILUPBiCGStab:  Solving for k, Initial residual = 0.00852811, Final residual = 0.000152364, No Iterations 1
ExecutionTime = 2.8 s  ClockTime = 3 s

Time = 53

DILUPBiCGStab:  Solving for Ux, Initial residual = 0.00999993, Final residual = 0.000699247, No Iterations 1
DILUPBiCGStab:  Solving for Uy, Initial residual = 0.0202214, Final residual = 0.00185817, No Iterations 1
DILUPBiCGStab:  Solving for Uz, Initial residual = 0.0260581, Final residual = 0.00141415, No Iterations 1
DILUPBiCGStab:  Solving for e, Initial residual = 0.00818514, Final residual = 0.000213026, No Iterations 1
DICPCG:  Solving for p_rgh, Initial residual = 0.0875943, Final residual = 0.00087266, No Iterations 131
time step continuity errors : sum local = 22.6112, global = -3.32033, cumulative = -51.4565
DILUPBiCGStab:  Solving for epsilon, Initial residual = 0, Final residual = 0, No Iterations 0
DILUPBiCGStab:  Solving for k, Initial residual = 0.00872675, Final residual = 0.000155498, No Iterations 1
ExecutionTime = 2.84 s  ClockTime = 3 s

Time = 54

DILUPBiCGStab:  Solving for Ux, Initial residual = 0.00974997, Final residual = 0.000676701, No Iterations 1
DILUPBiCGStab:  Solving for Uy, Initial residual = 0.0198573, Final residual = 0.00176802, No Iterations 1
DILUPBiCGStab:  Solving for Uz, Initial residual = 0.025724, Final residual = 0.00139822, No Iterations 1
DILUPBiCGStab:  Solving for e, Initial residual = 0.00822427, Final residual = 0.000226328, No Iterations 1
DICPCG:  Solving for p_rgh, Initial residual = 0.08403, Final residual = 0.000704622, No Iterations 206
time step continuity errors : sum local = 18.2962, global = -0.00391922, cumulative = -51.4604
DILUPBiCGStab:  Solving for epsilon, Initial residual = 0, Final residual = 0, No Iterations 0
DILUPBiCGStab:  Solving for k, Initial residual = 0.00892547, Final residual = 0.000154351, No Iterations 1
ExecutionTime = 2.9 s  ClockTime = 3 s

Time = 55

DILUPBiCGStab:  Solving for Ux, Initial residual = 0.00957542, Final residual = 0.000665358, No Iterations 1
DILUPBiCGStab:  Solving for Uy, Initial residual = 0.0199834, Final residual = 0.00171253, No Iterations 1
DILUPBiCGStab:  Solving for Uz, Initial residual = 0.0269191, Final residual = 0.00150502, No Iterations 1
DILUPBiCGStab:  Solving for e, Initial residual = 0.00828424, Final residual = 0.000222064, No Iterations 1
DICPCG:  Solving for p_rgh, Initial residual = 0.0903254, Final residual = 0.000884338, No Iterations 78
time step continuity errors : sum local = 23.5388, global = 0.0362371, cumulative = -51.4242
DILUPBiCGStab:  Solving for epsilon, Initial residual = 0, Final residual = 0, No Iterations 0
DILUPBiCGStab:  Solving for k, Initial residual = 0.00917829, Final residual = 0.000164543, No Iterations 1
ExecutionTime = 2.94 s  ClockTime = 3 s

Time = 56

DILUPBiCGStab:  Solving for Ux, Initial residual = 0.00960876, Final residual = 0.000633319, No Iterations 1
DILUPBiCGStab:  Solving for Uy, Initial residual = 0.0203975, Final residual = 0.00166199, No Iterations 1
DILUPBiCGStab:  Solving for Uz, Initial residual = 0.0267431, Final residual = 0.00130804, No Iterations 1
DILUPBiCGStab:  Solving for e, Initial residual = 0.00834746, Final residual = 0.000189089, No Iterations 1
DICPCG:  Solving for p_rgh, Initial residual = 0.0878713, Final residual = 0.000872435, No Iterations 79
time step continuity errors : sum local = 22.9161, global = 2.87874, cumulative = -48.5455
DILUPBiCGStab:  Solving for epsilon, Initial residual = 0, Final residual = 0, No Iterations 0
DILUPBiCGStab:  Solving for k, Initial residual = 0.00937847, Final residual = 0.000171733, No Iterations 1
ExecutionTime = 2.98 s  ClockTime = 3 s

Time = 57

DILUPBiCGStab:  Solving for Ux, Initial residual = 0.00955533, Final residual = 0.000627795, No Iterations 1
DILUPBiCGStab:  Solving for Uy, Initial residual = 0.0200329, Final residual = 0.00161022, No Iterations 1
DILUPBiCGStab:  Solving for Uz, Initial residual = 0.0269363, Final residual = 0.00136324, No Iterations 1
DILUPBiCGStab:  Solving for e, Initial residual = 0.00835522, Final residual = 0.000152513, No Iterations 1
DICPCG:  Solving for p_rgh, Initial residual = 0.0837237, Final residual = 0.000820974, No Iterations 187
time step continuity errors : sum local = 21.3793, global = -0.118883, cumulative = -48.6643
DILUPBiCGStab:  Solving for epsilon, Initial residual = 0, Final residual = 0, No Iterations 0
DILUPBiCGStab:  Solving for k, Initial residual = 0.00958177, Final residual = 0.000177614, No Iterations 1
ExecutionTime = 3.04 s  ClockTime = 3 s

Time = 58

DILUPBiCGStab:  Solving for Ux, Initial residual = 0.00949859, Final residual = 0.000633363, No Iterations 1
DILUPBiCGStab:  Solving for Uy, Initial residual = 0.0186003, Final residual = 0.00153599, No Iterations 1
DILUPBiCGStab:  Solving for Uz, Initial residual = 0.0272815, Final residual = 0.00133733, No Iterations 1
DILUPBiCGStab:  Solving for e, Initial residual = 0.00833792, Final residual = 0.000137046, No Iterations 1
DICPCG:  Solving for p_rgh, Initial residual = 0.083355, Final residual = 0.000780014, No Iterations 35
time step continuity errors : sum local = 19.8821, global = -1.42691, cumulative = -50.0913
DILUPBiCGStab:  Solving for epsilon, Initial residual = 0, Final residual = 0, No Iterations 0
DILUPBiCGStab:  Solving for k, Initial residual = 0.00973227, Final residual = 0.000181934, No Iterations 1
ExecutionTime = 3.06 s  ClockTime = 3 s

Time = 59

DILUPBiCGStab:  Solving for Ux, Initial residual = 0.00932048, Final residual = 0.000637314, No Iterations 1
DILUPBiCGStab:  Solving for Uy, Initial residual = 0.0168067, Final residual = 0.00146368, No Iterations 1
DILUPBiCGStab:  Solving for Uz, Initial residual = 0.0270372, Final residual = 0.00131404, No Iterations 1
DILUPBiCGStab:  Solving for e, Initial residual = 0.00828808, Final residual = 0.000132242, No Iterations 1
DICPCG:  Solving for p_rgh, Initial residual = 0.080536, Final residual = 0.000726316, No Iterations 56
time step continuity errors : sum local = 18.4583, global = -3.46931, cumulative = -53.5606
DILUPBiCGStab:  Solving for epsilon, Initial residual = 0, Final residual = 0, No Iterations 0
DILUPBiCGStab:  Solving for k, Initial residual = 0.0098646, Final residual = 0.000184894, No Iterations 1
ExecutionTime = 3.1 s  ClockTime = 3 s

Time = 60

DILUPBiCGStab:  Solving for Ux, Initial residual = 0.0091694, Final residual = 0.000640827, No Iterations 1
DILUPBiCGStab:  Solving for Uy, Initial residual = 0.0159047, Final residual = 0.00146179, No Iterations 1
DILUPBiCGStab:  Solving for Uz, Initial residual = 0.0270657, Final residual = 0.00125498, No Iterations 1
DILUPBiCGStab:  Solving for e, Initial residual = 0.00822285, Final residual = 0.000130432, No Iterations 1
DICPCG:  Solving for p_rgh, Initial residual = 0.0772865, Final residual = 0.000579086, No Iterations 209
time step continuity errors : sum local = 14.7505, global = 0.0162227, cumulative = -53.5443
DILUPBiCGStab:  Solving for epsilon, Initial residual = 0, Final residual = 0, No Iterations 0
DILUPBiCGStab:  Solving for k, Initial residual = 0.00999224, Final residual = 0.000185926, No Iterations 1
ExecutionTime = 3.16 s  ClockTime = 3 s

Time = 61

DILUPBiCGStab:  Solving for Ux, Initial residual = 0.00904276, Final residual = 0.000639575, No Iterations 1
DILUPBiCGStab:  Solving for Uy, Initial residual = 0.0155348, Final residual = 0.00148705, No Iterations 1
DILUPBiCGStab:  Solving for Uz, Initial residual = 0.029498, Final residual = 0.00165502, No Iterations 1
DILUPBiCGStab:  Solving for e, Initial residual = 0.00813104, Final residual = 0.000125898, No Iterations 1
DICPCG:  Solving for p_rgh, Initial residual = 0.0715444, Final residual = 0.000702551, No Iterations 86
time step continuity errors : sum local = 18.7049, global = -1.60433, cumulative = -55.1487
DILUPBiCGStab:  Solving for epsilon, Initial residual = 0, Final residual = 0, No Iterations 0
DILUPBiCGStab:  Solving for k, Initial residual = 0.0101089, Final residual = 0.000186597, No Iterations 1
ExecutionTime = 3.19 s  ClockTime = 3 s

Time = 62

DILUPBiCGStab:  Solving for Ux, Initial residual = 0.00888059, Final residual = 0.000633323, No Iterations 1
DILUPBiCGStab:  Solving for Uy, Initial residual = 0.0152704, Final residual = 0.0015125, No Iterations 1
DILUPBiCGStab:  Solving for Uz, Initial residual = 0.0273635, Final residual = 0.00127765, No Iterations 1
DILUPBiCGStab:  Solving for e, Initial residual = 0.00800764, Final residual = 0.000117113, No Iterations 1
DICPCG:  Solving for p_rgh, Initial residual = 0.0645231, Final residual = 0.000634787, No Iterations 79
time step continuity errors : sum local = 19.2896, global = 1.59747, cumulative = -53.5512
DILUPBiCGStab:  Solving for epsilon, Initial residual = 0, Final residual = 0, No Iterations 0
DILUPBiCGStab:  Solving for k, Initial residual = 0.0101456, Final residual = 0.000187515, No Iterations 1
ExecutionTime = 3.23 s  ClockTime = 3 s

Time = 63

DILUPBiCGStab:  Solving for Ux, Initial residual = 0.00858001, Final residual = 0.000600784, No Iterations 1
DILUPBiCGStab:  Solving for Uy, Initial residual = 0.0147007, Final residual = 0.000210092, No Iterations 1
DILUPBiCGStab:  Solving for Uz, Initial residual = 0.027704, Final residual = 0.00128612, No Iterations 1
DILUPBiCGStab:  Solving for e, Initial residual = 0.00784055, Final residual = 0.000103396, No Iterations 1
DICPCG:  Solving for p_rgh, Initial residual = 0.0708861, Final residual = 0.000682965, No Iterations 185
time step continuity errors : sum local = 17.8672, global = 0.111007, cumulative = -53.4402
DILUPBiCGStab:  Solving for epsilon, Initial residual = 0, Final residual = 0, No Iterations 0
DILUPBiCGStab:  Solving for k, Initial residual = 0.01017, Final residual = 0.000190176, No Iterations 1
ExecutionTime = 3.29 s  ClockTime = 3 s

Time = 64

DILUPBiCGStab:  Solving for Ux, Initial residual = 0.00830106, Final residual = 0.000568377, No Iterations 1
DILUPBiCGStab:  Solving for Uy, Initial residual = 0.0143176, Final residual = 0.00142657, No Iterations 1
DILUPBiCGStab:  Solving for Uz, Initial residual = 0.0283231, Final residual = 0.00128966, No Iterations 1
DILUPBiCGStab:  Solving for e, Initial residual = 0.00766721, Final residual = 9.05372e-05, No Iterations 1
DICPCG:  Solving for p_rgh, Initial residual = 0.0683745, Final residual = 0.000677083, No Iterations 54
time step continuity errors : sum local = 17.3635, global = 0.608586, cumulative = -52.8316
DILUPBiCGStab:  Solving for epsilon, Initial residual = 0, Final residual = 0, No Iterations 0
DILUPBiCGStab:  Solving for k, Initial residual = 0.010136, Final residual = 0.000189841, No Iterations 1
ExecutionTime = 3.32 s  ClockTime = 3 s

Time = 65

DILUPBiCGStab:  Solving for Ux, Initial residual = 0.00801038, Final residual = 0.000540544, No Iterations 1
DILUPBiCGStab:  Solving for Uy, Initial residual = 0.0140852, Final residual = 0.000209905, No Iterations 1
DILUPBiCGStab:  Solving for Uz, Initial residual = 0.0286912, Final residual = 0.00122476, No Iterations 1
DILUPBiCGStab:  Solving for e, Initial residual = 0.00750282, Final residual = 7.87111e-05, No Iterations 1
DICPCG:  Solving for p_rgh, Initial residual = 0.0663558, Final residual = 0.00065047, No Iterations 114
time step continuity errors : sum local = 17.0672, global = -1.41069, cumulative = -54.2423
DILUPBiCGStab:  Solving for epsilon, Initial residual = 0, Final residual = 0, No Iterations 0
DILUPBiCGStab:  Solving for k, Initial residual = 0.010114, Final residual = 0.000190046, No Iterations 1
ExecutionTime = 3.37 s  ClockTime = 3 s

Time = 66

DILUPBiCGStab:  Solving for Ux, Initial residual = 0.00775868, Final residual = 0.000516482, No Iterations 1
DILUPBiCGStab:  Solving for Uy, Initial residual = 0.0139509, Final residual = 0.0013791, No Iterations 1
DILUPBiCGStab:  Solving for Uz, Initial residual = 0.0278165, Final residual = 0.00115101, No Iterations 1
DILUPBiCGStab:  Solving for e, Initial residual = 0.00735635, Final residual = 6.76433e-05, No Iterations 1
DICPCG:  Solving for p_rgh, Initial residual = 0.0626463, Final residual = 0.000506794, No Iterations 205
time step continuity errors : sum local = 13.9913, global = -0.0133036, cumulative = -54.2556
DILUPBiCGStab:  Solving for epsilon, Initial residual = 0, Final residual = 0, No Iterations 0
DILUPBiCGStab:  Solving for k, Initial residual = 0.0101018, Final residual = 0.000189298, No Iterations 1
ExecutionTime = 3.43 s  ClockTime = 3 s

Time = 67

DILUPBiCGStab:  Solving for Ux, Initial residual = 0.00751122, Final residual = 0.00049981, No Iterations 1
DILUPBiCGStab:  Solving for Uy, Initial residual = 0.0137716, Final residual = 0.000208278, No Iterations 1
DILUPBiCGStab:  Solving for Uz, Initial residual = 0.0281684, Final residual = 0.00116339, No Iterations 1
DILUPBiCGStab:  Solving for e, Initial residual = 0.00722039, Final residual = 5.74916e-05, No Iterations 1
DICPCG:  Solving for p_rgh, Initial residual = 0.0609741, Final residual = 0.000507274, No Iterations 203
time step continuity errors : sum local = 14.3893, global = -0.00926421, cumulative = -54.2649
DILUPBiCGStab:  Solving for epsilon, Initial residual = 0, Final residual = 0, No Iterations 0
DILUPBiCGStab:  Solving for k, Initial residual = 0.0100354, Final residual = 0.000189867, No Iterations 1
ExecutionTime = 3.49 s  ClockTime = 4 s

Time = 68

DILUPBiCGStab:  Solving for Ux, Initial residual = 0.00723312, Final residual = 0.00048376, No Iterations 1
DILUPBiCGStab:  Solving for Uy, Initial residual = 0.013421, Final residual = 0.000204067, No Iterations 1
DILUPBiCGStab:  Solving for Uz, Initial residual = 0.0278843, Final residual = 0.00114188, No Iterations 1
DILUPBiCGStab:  Solving for e, Initial residual = 0.00709069, Final residual = 4.83544e-05, No Iterations 1
DICPCG:  Solving for p_rgh, Initial residual = 0.0605171, Final residual = 0.00055504, No Iterations 38
time step continuity errors : sum local = 15.6604, global = -2.196, cumulative = -56.4609
DILUPBiCGStab:  Solving for epsilon, Initial residual = 0, Final residual = 0, No Iterations 0
DILUPBiCGStab:  Solving for k, Initial residual = 0.00994324, Final residual = 0.000189899, No Iterations 1
ExecutionTime = 3.52 s  ClockTime = 4 s

Time = 69

DILUPBiCGStab:  Solving for Ux, Initial residual = 0.00696164, Final residual = 0.000466772, No Iterations 1
DILUPBiCGStab:  Solving for Uy, Initial residual = 0.0129442, Final residual = 0.000201457, No Iterations 1
DILUPBiCGStab:  Solving for Uz, Initial residual = 0.0272305, Final residual = 0.00115757, No Iterations 1
DILUPBiCGStab:  Solving for e, Initial residual = 0.00698157, Final residual = 4.05268e-05, No Iterations 1
DICPCG:  Solving for p_rgh, Initial residual = 0.0620791, Final residual = 0.000494185, No Iterations 204
time step continuity errors : sum local = 13.3844, global = -0.0488172, cumulative = -56.5097
DILUPBiCGStab:  Solving for epsilon, Initial residual = 0, Final residual = 0, No Iterations 0
DILUPBiCGStab:  Solving for k, Initial residual = 0.00984499, Final residual = 0.00019039, No Iterations 1
ExecutionTime = 3.58 s  ClockTime = 4 s

Time = 70

DILUPBiCGStab:  Solving for Ux, Initial residual = 0.00675294, Final residual = 0.000456961, No Iterations 1
DILUPBiCGStab:  Solving for Uy, Initial residual = 0.012456, Final residual = 0.000199711, No Iterations 1
DILUPBiCGStab:  Solving for Uz, Initial residual = 0.0269912, Final residual = 0.00116408, No Iterations 1
DILUPBiCGStab:  Solving for e, Initial residual = 0.00688136, Final residual = 3.37807e-05, No Iterations 1
DICPCG:  Solving for p_rgh, Initial residual = 0.0602989, Final residual = 0.000584679, No Iterations 203
time step continuity errors : sum local = 15.8931, global = -0.0250377, cumulative = -56.5347
DILUPBiCGStab:  Solving for epsilon, Initial residual = 0, Final residual = 0, No Iterations 0
DILUPBiCGStab:  Solving for k, Initial residual = 0.00971619, Final residual = 0.000189389, No Iterations 1
ExecutionTime = 3.63 s  ClockTime = 4 s

Time = 71

DILUPBiCGStab:  Solving for Ux, Initial residual = 0.00657562, Final residual = 0.000450263, No Iterations 1
DILUPBiCGStab:  Solving for Uy, Initial residual = 0.0121821, Final residual = 0.000199669, No Iterations 1
DILUPBiCGStab:  Solving for Uz, Initial residual = 0.0265199, Final residual = 0.00111878, No Iterations 1
DILUPBiCGStab:  Solving for e, Initial residual = 0.00679123, Final residual = 2.8087e-05, No Iterations 1
DICPCG:  Solving for p_rgh, Initial residual = 0.0587245, Final residual = 0.000579416, No Iterations 119
time step continuity errors : sum local = 15.8581, global = -2.10295, cumulative = -58.6377
DILUPBiCGStab:  Solving for epsilon, Initial residual = 0, Final residual = 0, No Iterations 0
DILUPBiCGStab:  Solving for k, Initial residual = 0.00960953, Final residual = 0.000189046, No Iterations 1
ExecutionTime = 3.68 s  ClockTime = 4 s

Time = 72

DILUPBiCGStab:  Solving for Ux, Initial residual = 0.00642378, Final residual = 0.000443714, No Iterations 1
DILUPBiCGStab:  Solving for Uy, Initial residual = 0.0121659, Final residual = 0.00020047, No Iterations 1
DILUPBiCGStab:  Solving for Uz, Initial residual = 0.0262379, Final residual = 0.00113334, No Iterations 1
DILUPBiCGStab:  Solving for e, Initial residual = 0.00671383, Final residual = 2.32572e-05, No Iterations 1
DICPCG:  Solving for p_rgh, Initial residual = 0.0588701, Final residual = 0.00056338, No Iterations 171
time step continuity errors : sum local = 15.3916, global = -0.610385, cumulative = -59.2481
DILUPBiCGStab:  Solving for epsilon, Initial residual = 0, Final residual = 0, No Iterations 0
DILUPBiCGStab:  Solving for k, Initial residual = 0.00955781, Final residual = 0.000189372, No Iterations 1
ExecutionTime = 3.73 s  ClockTime = 4 s

Time = 73

DILUPBiCGStab:  Solving for Ux, Initial residual = 0.00630497, Final residual = 0.000441068, No Iterations 1
DILUPBiCGStab:  Solving for Uy, Initial residual = 0.0120625, Final residual = 0.000200782, No Iterations 1
DILUPBiCGStab:  Solving for Uz, Initial residual = 0.0260654, Final residual = 0.0010873, No Iterations 1
DILUPBiCGStab:  Solving for e, Initial residual = 0.0066459, Final residual = 1.92843e-05, No Iterations 1
DICPCG:  Solving for p_rgh, Initial residual = 0.0579136, Final residual = 0.000467346, No Iterations 204
time step continuity errors : sum local = 12.9685, global = 0.0323346, cumulative = -59.2157
DILUPBiCGStab:  Solving for epsilon, Initial residual = 0, Final residual = 0, No Iterations 0
DILUPBiCGStab:  Solving for k, Initial residual = 0.00946402, Final residual = 0.000188688, No Iterations 1
ExecutionTime = 3.79 s  ClockTime = 4 s

Time = 74

DILUPBiCGStab:  Solving for Ux, Initial residual = 0.00614706, Final residual = 0.000436044, No Iterations 1
DILUPBiCGStab:  Solving for Uy, Initial residual = 0.0119173, Final residual = 0.000201513, No Iterations 1
DILUPBiCGStab:  Solving for Uz, Initial residual = 0.0253852, Final residual = 0.0011223, No Iterations 1
DILUPBiCGStab:  Solving for e, Initial residual = 0.00657894, Final residual = 1.67561e-05, No Iterations 1
DICPCG:  Solving for p_rgh, Initial residual = 0.0584084, Final residual = 0.000578828, No Iterations 113
time step continuity errors : sum local = 16.3145, global = -1.91268, cumulative = -61.1284
DILUPBiCGStab:  Solving for epsilon, Initial residual = 0, Final residual = 0, No Iterations 0
DILUPBiCGStab:  Solving for k, Initial residual = 0.00941345, Final residual = 0.000188477, No Iterations 1
ExecutionTime = 3.83 s  ClockTime = 4 s

Time = 75

DILUPBiCGStab:  Solving for Ux, Initial residual = 0.00600539, Final residual = 0.000427603, No Iterations 1
DILUPBiCGStab:  Solving for Uy, Initial residual = 0.0116688, Final residual = 0.000200058, No Iterations 1
DILUPBiCGStab:  Solving for Uz, Initial residual = 0.0246747, Final residual = 0.00110824, No Iterations 1
DILUPBiCGStab:  Solving for e, Initial residual = 0.00649394, Final residual = 1.54449e-05, No Iterations 1
DICPCG:  Solving for p_rgh, Initial residual = 0.0574536, Final residual = 0.000531505, No Iterations 182
time step continuity errors : sum local = 14.9883, global = 0.120684, cumulative = -61.0077
DILUPBiCGStab:  Solving for epsilon, Initial residual = 0, Final residual = 0, No Iterations 0
DILUPBiCGStab:  Solving for k, Initial residual = 0.009397, Final residual = 0.000188684, No Iterations 1
ExecutionTime = 3.89 s  ClockTime = 4 s

Time = 76

DILUPBiCGStab:  Solving for Ux, Initial residual = 0.00586849, Final residual = 0.000422129, No Iterations 1
DILUPBiCGStab:  Solving for Uy, Initial residual = 0.011315, Final residual = 0.000196518, No Iterations 1
DILUPBiCGStab:  Solving for Uz, Initial residual = 0.0250619, Final residual = 0.00125442, No Iterations 1
DILUPBiCGStab:  Solving for e, Initial residual = 0.00638378, Final residual = 1.41598e-05, No Iterations 1
DICPCG:  Solving for p_rgh, Initial residual = 0.0552493, Final residual = 0.000538846, No Iterations 61
time step continuity errors : sum local = 15.3517, global = -3.23648, cumulative = -64.2442
DILUPBiCGStab:  Solving for epsilon, Initial residual = 0, Final residual = 0, No Iterations 0
DILUPBiCGStab:  Solving for k, Initial residual = 0.00940009, Final residual = 0.000189362, No Iterations 1
ExecutionTime = 3.92 s  ClockTime = 4 s

Time = 77

DILUPBiCGStab:  Solving for Ux, Initial residual = 0.00571212, Final residual = 0.000413038, No Iterations 1
DILUPBiCGStab:  Solving for Uy, Initial residual = 0.0110203, Final residual = 0.000193389, No Iterations 1
DILUPBiCGStab:  Solving for Uz, Initial residual = 0.0261753, Final residual = 0.00129412, No Iterations 1
DILUPBiCGStab:  Solving for e, Initial residual = 0.00625789, Final residual = 1.28664e-05, No Iterations 1
DICPCG:  Solving for p_rgh, Initial residual = 0.0549272, Final residual = 0.000547552, No Iterations 205
time step continuity errors : sum local = 15.5995, global = 0.0697611, cumulative = -64.1744
DILUPBiCGStab:  Solving for epsilon, Initial residual = 0, Final residual = 0, No Iterations 0
DILUPBiCGStab:  Solving for k, Initial residual = 0.00941484, Final residual = 0.000189756, No Iterations 1
ExecutionTime = 3.99 s  ClockTime = 4 s

Time = 78

DILUPBiCGStab:  Solving for Ux, Initial residual = 0.00563815, Final residual = 0.000411603, No Iterations 1
DILUPBiCGStab:  Solving for Uy, Initial residual = 0.0108292, Final residual = 0.000189921, No Iterations 1
DILUPBiCGStab:  Solving for Uz, Initial residual = 0.0278322, Final residual = 0.00129218, No Iterations 1
DILUPBiCGStab:  Solving for e, Initial residual = 0.00611197, Final residual = 1.16184e-05, No Iterations 1
DICPCG:  Solving for p_rgh, Initial residual = 0.0555655, Final residual = 0.000546362, No Iterations 206
time step continuity errors : sum local = 15.8546, global = -0.0186248, cumulative = -64.1931
DILUPBiCGStab:  Solving for epsilon, Initial residual = 0, Final residual = 0, No Iterations 0
DILUPBiCGStab:  Solving for k, Initial residual = 0.00944475, Final residual = 0.000189808, No Iterations 1
ExecutionTime = 4.05 s  ClockTime = 4 s

Time = 79

DILUPBiCGStab:  Solving for Ux, Initial residual = 0.00556252, Final residual = 0.000407966, No Iterations 1
DILUPBiCGStab:  Solving for Uy, Initial residual = 0.010756, Final residual = 0.000187824, No Iterations 1
DILUPBiCGStab:  Solving for Uz, Initial residual = 0.0285724, Final residual = 0.00127557, No Iterations 1
DILUPBiCGStab:  Solving for e, Initial residual = 0.00595952, Final residual = 1.04979e-05, No Iterations 1
DICPCG:  Solving for p_rgh, Initial residual = 0.0560288, Final residual = 0.000542029, No Iterations 83
time step continuity errors : sum local = 15.8884, global = -1.55199, cumulative = -65.7451
DILUPBiCGStab:  Solving for epsilon, Initial residual = 0, Final residual = 0, No Iterations 0
DILUPBiCGStab:  Solving for k, Initial residual = 0.00950078, Final residual = 0.00019103, No Iterations 1
ExecutionTime = 4.09 s  ClockTime = 4 s

Time = 80

DILUPBiCGStab:  Solving for Ux, Initial residual = 0.00544825, Final residual = 0.000398578, No Iterations 1
DILUPBiCGStab:  Solving for Uy, Initial residual = 0.0106573, Final residual = 0.000185253, No Iterations 1
DILUPBiCGStab:  Solving for Uz, Initial residual = 0.0299336, Final residual = 0.00119309, No Iterations 1
DILUPBiCGStab:  Solving for e, Initial residual = 0.00580397, Final residual = 9.32317e-06, No Iterations 1
DICPCG:  Solving for p_rgh, Initial residual = 0.056626, Final residual = 0.000563823, No Iterations 130
time step continuity errors : sum local = 16.5016, global = -1.53556, cumulative = -67.2806
DILUPBiCGStab:  Solving for epsilon, Initial residual = 0, Final residual = 0, No Iterations 0
DILUPBiCGStab:  Solving for k, Initial residual = 0.00954099, Final residual = 0.000191908, No Iterations 1
ExecutionTime = 4.13 s  ClockTime = 4 s

Time = 81

DILUPBiCGStab:  Solving for Ux, Initial residual = 0.00538112, Final residual = 0.000392806, No Iterations 1
DILUPBiCGStab:  Solving for Uy, Initial residual = 0.0106252, Final residual = 0.000183402, No Iterations 1
DILUPBiCGStab:  Solving for Uz, Initial residual = 0.0309296, Final residual = 0.00117173, No Iterations 1
DILUPBiCGStab:  Solving for e, Initial residual = 0.00564466, Final residual = 8.29003e-06, No Iterations 1
DICPCG:  Solving for p_rgh, Initial residual = 0.0582294, Final residual = 0.0004508, No Iterations 208
time step continuity errors : sum local = 13.16, global = 0.0173429, cumulative = -67.2633
DILUPBiCGStab:  Solving for epsilon, Initial residual = 0, Final residual = 0, No Iterations 0
DILUPBiCGStab:  Solving for k, Initial residual = 0.0095675, Final residual = 0.000192294, No Iterations 1
ExecutionTime = 4.19 s  ClockTime = 4 s

Time = 82

DILUPBiCGStab:  Solving for Ux, Initial residual = 0.00530336, Final residual = 0.000387245, No Iterations 1
DILUPBiCGStab:  Solving for Uy, Initial residual = 0.0104973, Final residual = 0.000179527, No Iterations 1
DILUPBiCGStab:  Solving for Uz, Initial residual = 0.0305025, Final residual = 0.00112886, No Iterations 1
DILUPBiCGStab:  Solving for e, Initial residual = 0.00549375, Final residual = 7.6211e-06, No Iterations 1
DICPCG:  Solving for p_rgh, Initial residual = 0.0563064, Final residual = 0.000527361, No Iterations 70
time step continuity errors : sum local = 15.5562, global = -3.32297, cumulative = -70.5862
DILUPBiCGStab:  Solving for epsilon, Initial residual = 0, Final residual = 0, No Iterations 0
DILUPBiCGStab:  Solving for k, Initial residual = 0.0095974, Final residual = 0.000193422, No Iterations 1
ExecutionTime = 4.23 s  ClockTime = 4 s

Time = 83

DILUPBiCGStab:  Solving for Ux, Initial residual = 0.00521677, Final residual = 0.000379046, No Iterations 1
DILUPBiCGStab:  Solving for Uy, Initial residual = 0.0103581, Final residual = 0.000175756, No Iterations 1
DILUPBiCGStab:  Solving for Uz, Initial residual = 0.0297256, Final residual = 0.00112592, No Iterations 1
DILUPBiCGStab:  Solving for e, Initial residual = 0.00535464, Final residual = 7.12406e-06, No Iterations 1
DICPCG:  Solving for p_rgh, Initial residual = 0.0565848, Final residual = 0.000518896, No Iterations 176
time step continuity errors : sum local = 15.2744, global = 0.283423, cumulative = -70.3028
DILUPBiCGStab:  Solving for epsilon, Initial residual = 0, Final residual = 0, No Iterations 0
DILUPBiCGStab:  Solving for k, Initial residual = 0.00962561, Final residual = 0.0001944, No Iterations 1
ExecutionTime = 4.28 s  ClockTime = 4 s

Time = 84

DILUPBiCGStab:  Solving for Ux, Initial residual = 0.00517522, Final residual = 0.000375923, No Iterations 1
DILUPBiCGStab:  Solving for Uy, Initial residual = 0.0101637, Final residual = 0.000170581, No Iterations 1
DILUPBiCGStab:  Solving for Uz, Initial residual = 0.0302127, Final residual = 0.00115009, No Iterations 1
DILUPBiCGStab:  Solving for e, Initial residual = 0.00522452, Final residual = 7.01183e-06, No Iterations 1
DICPCG:  Solving for p_rgh, Initial residual = 0.0554624, Final residual = 0.000529868, No Iterations 185
time step continuity errors : sum local = 15.8598, global = -0.401425, cumulative = -70.7042
DILUPBiCGStab:  Solving for epsilon, Initial residual = 0, Final residual = 0, No Iterations 0
DILUPBiCGStab:  Solving for k, Initial residual = 0.00966585, Final residual = 0.000195877, No Iterations 1
ExecutionTime = 4.34 s  ClockTime = 4 s

Time = 85

DILUPBiCGStab:  Solving for Ux, Initial residual = 0.00514289, Final residual = 0.000371951, No Iterations 1
DILUPBiCGStab:  Solving for Uy, Initial residual = 0.0100898, Final residual = 0.000167221, No Iterations 1
DILUPBiCGStab:  Solving for Uz, Initial residual = 0.0309868, Final residual = 0.00123099, No Iterations 1
DILUPBiCGStab:  Solving for e, Initial residual = 0.00511643, Final residual = 7.39457e-06, No Iterations 1
DICPCG:  Solving for p_rgh, Initial residual = 0.0553997, Final residual = 0.000543421, No Iterations 110
time step continuity errors : sum local = 16.4134, global = -1.09025, cumulative = -71.7945
DILUPBiCGStab:  Solving for epsilon, Initial residual = 0, Final residual = 0, No Iterations 0
DILUPBiCGStab:  Solving for k, Initial residual = 0.00969271, Final residual = 0.000197632, No Iterations 1
ExecutionTime = 4.38 s  ClockTime = 4 s

Time = 86

DILUPBiCGStab:  Solving for Ux, Initial residual = 0.00503264, Final residual = 0.000361875, No Iterations 1
DILUPBiCGStab:  Solving for Uy, Initial residual = 0.00981013, Final residual = 0.000161376, No Iterations 1
DILUPBiCGStab:  Solving for Uz, Initial residual = 0.0315321, Final residual = 0.00126111, No Iterations 1
DILUPBiCGStab:  Solving for e, Initial residual = 0.00500342, Final residual = 7.63172e-06, No Iterations 1
DICPCG:  Solving for p_rgh, Initial residual = 0.0544457, Final residual = 0.000522708, No Iterations 113
time step continuity errors : sum local = 15.7793, global = -1.73618, cumulative = -73.5307
DILUPBiCGStab:  Solving for epsilon, Initial residual = 0, Final residual = 0, No Iterations 0
DILUPBiCGStab:  Solving for k, Initial residual = 0.00970266, Final residual = 0.000199209, No Iterations 1
ExecutionTime = 4.42 s  ClockTime = 5 s

Time = 87

DILUPBiCGStab:  Solving for Ux, Initial residual = 0.00501165, Final residual = 0.000354504, No Iterations 1
DILUPBiCGStab:  Solving for Uy, Initial residual = 0.00967071, Final residual = 0.000155476, No Iterations 1
DILUPBiCGStab:  Solving for Uz, Initial residual = 0.0316909, Final residual = 0.00132047, No Iterations 1
DILUPBiCGStab:  Solving for e, Initial residual = 0.00489622, Final residual = 8.26141e-06, No Iterations 1
DICPCG:  Solving for p_rgh, Initial residual = 0.0563633, Final residual = 0.000503852, No Iterations 205
time step continuity errors : sum local = 15.2155, global = 0.0225465, cumulative = -73.5081
DILUPBiCGStab:  Solving for epsilon, Initial residual = 0, Final residual = 0, No Iterations 0
DILUPBiCGStab:  Solving for k, Initial residual = 0.00972078, Final residual = 0.000200724, No Iterations 1
ExecutionTime = 4.51 s  ClockTime = 5 s

Time = 88

DILUPBiCGStab:  Solving for Ux, Initial residual = 0.00497651, Final residual = 0.000348928, No Iterations 1
DILUPBiCGStab:  Solving for Uy, Initial residual = 0.00936513, Final residual = 0.000934419, No Iterations 1
DILUPBiCGStab:  Solving for Uz, Initial residual = 0.0330177, Final residual = 0.00146485, No Iterations 1
DILUPBiCGStab:  Solving for e, Initial residual = 0.00478981, Final residual = 8.76911e-06, No Iterations 1
DICPCG:  Solving for p_rgh, Initial residual = 0.0559605, Final residual = 0.000487927, No Iterations 204
time step continuity errors : sum local = 14.9324, global = -0.0886557, cumulative = -73.5968
DILUPBiCGStab:  Solving for epsilon, Initial residual = 0, Final residual = 0, No Iterations 0
DILUPBiCGStab:  Solving for k, Initial residual = 0.00974623, Final residual = 0.000201858, No Iterations 1
ExecutionTime = 4.57 s  ClockTime = 5 s

Time = 89

DILUPBiCGStab:  Solving for Ux, Initial residual = 0.00497658, Final residual = 0.000344224, No Iterations 1
[...]
DICPCG:  Solving for p_rgh, Initial residual = 0.0518354, Final residual = 0.000517637, No Iterations 39
time step continuity errors : sum local = 52.9452, global = -0.514516, cumulative = -1042.69
DILUPBiCGStab:  Solving for epsilon, Initial residual = 0, Final residual = 0, No Iterations 0
DILUPBiCGStab:  Solving for k, Initial residual = 0.00487805, Final residual = 0.000262942, No Iterations 1
ExecutionTime = 46.93 s  ClockTime = 48 s

Time = 979

DILUPBiCGStab:  Solving for Ux, Initial residual = 0.00844764, Final residual = 0.000209393, No Iterations 1
DILUPBiCGStab:  Solving for Uy, Initial residual = 0.0239084, Final residual = 0.000570179, No Iterations 1
DILUPBiCGStab:  Solving for Uz, Initial residual = 0.0221896, Final residual = 0.00117956, No Iterations 1
DILUPBiCGStab:  Solving for e, Initial residual = 0.00349233, Final residual = 0.000186564, No Iterations 1
DICPCG:  Solving for p_rgh, Initial residual = 0.0486712, Final residual = 0.000441495, No Iterations 203
time step continuity errors : sum local = 45.2514, global = -0.00121896, cumulative = -1042.7
DILUPBiCGStab:  Solving for epsilon, Initial residual = 0, Final residual = 0, No Iterations 0
DILUPBiCGStab:  Solving for k, Initial residual = 0.00498942, Final residual = 0.000269468, No Iterations 1
ExecutionTime = 46.99 s  ClockTime = 48 s

Time = 980

DILUPBiCGStab:  Solving for Ux, Initial residual = 0.00842695, Final residual = 0.00021624, No Iterations 1
DILUPBiCGStab:  Solving for Uy, Initial residual = 0.0236331, Final residual = 0.000555135, No Iterations 1
DILUPBiCGStab:  Solving for Uz, Initial residual = 0.0220467, Final residual = 0.00121448, No Iterations 1
DILUPBiCGStab:  Solving for e, Initial residual = 0.00350751, Final residual = 0.000184552, No Iterations 1
DICPCG:  Solving for p_rgh, Initial residual = 0.051063, Final residual = 0.000482619, No Iterations 37
time step continuity errors : sum local = 49.8025, global = -8.82322, cumulative = -1051.52
DILUPBiCGStab:  Solving for epsilon, Initial residual = 0, Final residual = 0, No Iterations 0
DILUPBiCGStab:  Solving for k, Initial residual = 0.0051313, Final residual = 0.000283772, No Iterations 1
ExecutionTime = 47.02 s  ClockTime = 48 s

Time = 981

DILUPBiCGStab:  Solving for Ux, Initial residual = 0.00864443, Final residual = 0.000223556, No Iterations 1
DILUPBiCGStab:  Solving for Uy, Initial residual = 0.0238589, Final residual = 0.000601933, No Iterations 1
DILUPBiCGStab:  Solving for Uz, Initial residual = 0.0220915, Final residual = 0.00118362, No Iterations 1
DILUPBiCGStab:  Solving for e, Initial residual = 0.00357226, Final residual = 0.000192652, No Iterations 1
DICPCG:  Solving for p_rgh, Initial residual = 0.0485865, Final residual = 0.000393659, No Iterations 202
time step continuity errors : sum local = 41.19, global = -0.0465031, cumulative = -1051.57
DILUPBiCGStab:  Solving for epsilon, Initial residual = 0, Final residual = 0, No Iterations 0
DILUPBiCGStab:  Solving for k, Initial residual = 0.0051382, Final residual = 0.000277131, No Iterations 1
ExecutionTime = 47.08 s  ClockTime = 48 s

Time = 982

DILUPBiCGStab:  Solving for Ux, Initial residual = 0.00864829, Final residual = 0.000223051, No Iterations 1
DILUPBiCGStab:  Solving for Uy, Initial residual = 0.023645, Final residual = 0.000556029, No Iterations 1
DILUPBiCGStab:  Solving for Uz, Initial residual = 0.0213687, Final residual = 0.00116761, No Iterations 1
DILUPBiCGStab:  Solving for e, Initial residual = 0.003577, Final residual = 0.000190073, No Iterations 1
DICPCG:  Solving for p_rgh, Initial residual = 0.0499107, Final residual = 0.000486181, No Iterations 37
time step continuity errors : sum local = 50.463, global = 3.97317, cumulative = -1047.59
DILUPBiCGStab:  Solving for epsilon, Initial residual = 0, Final residual = 0, No Iterations 0
DILUPBiCGStab:  Solving for k, Initial residual = 0.00527216, Final residual = 0.000289603, No Iterations 1
ExecutionTime = 47.11 s  ClockTime = 48 s

Time = 983

DILUPBiCGStab:  Solving for Ux, Initial residual = 0.00899913, Final residual = 0.000239426, No Iterations 1
DILUPBiCGStab:  Solving for Uy, Initial residual = 0.02407, Final residual = 0.000630121, No Iterations 1
DILUPBiCGStab:  Solving for Uz, Initial residual = 0.0212592, Final residual = 0.0011719, No Iterations 1
DILUPBiCGStab:  Solving for e, Initial residual = 0.00365805, Final residual = 0.000193308, No Iterations 1
DICPCG:  Solving for p_rgh, Initial residual = 0.0513651, Final residual = 0.00035096, No Iterations 203
time step continuity errors : sum local = 36.4007, global = -0.0292322, cumulative = -1047.62
DILUPBiCGStab:  Solving for epsilon, Initial residual = 0, Final residual = 0, No Iterations 0
DILUPBiCGStab:  Solving for k, Initial residual = 0.00529725, Final residual = 0.000290991, No Iterations 1
ExecutionTime = 47.17 s  ClockTime = 48 s

Time = 984

DILUPBiCGStab:  Solving for Ux, Initial residual = 0.00914454, Final residual = 0.000236739, No Iterations 1
DILUPBiCGStab:  Solving for Uy, Initial residual = 0.023742, Final residual = 0.000575367, No Iterations 1
DILUPBiCGStab:  Solving for Uz, Initial residual = 0.0210045, Final residual = 0.00109851, No Iterations 1
DILUPBiCGStab:  Solving for e, Initial residual = 0.0036973, Final residual = 0.000194241, No Iterations 1
DICPCG:  Solving for p_rgh, Initial residual = 0.0491369, Final residual = 0.000441026, No Iterations 36
time step continuity errors : sum local = 46.0996, global = 8.06471, cumulative = -1039.56
DILUPBiCGStab:  Solving for epsilon, Initial residual = 0, Final residual = 0, No Iterations 0
DILUPBiCGStab:  Solving for k, Initial residual = 0.005349, Final residual = 0.000287563, No Iterations 1
ExecutionTime = 47.2 s  ClockTime = 48 s

Time = 985

DILUPBiCGStab:  Solving for Ux, Initial residual = 0.00940048, Final residual = 0.00024225, No Iterations 1
DILUPBiCGStab:  Solving for Uy, Initial residual = 0.02383, Final residual = 0.000581587, No Iterations 1
DILUPBiCGStab:  Solving for Uz, Initial residual = 0.020652, Final residual = 0.00111221, No Iterations 1
DILUPBiCGStab:  Solving for e, Initial residual = 0.00372465, Final residual = 0.000194267, No Iterations 1
DICPCG:  Solving for p_rgh, Initial residual = 0.0520692, Final residual = 0.000490514, No Iterations 36
time step continuity errors : sum local = 50.9588, global = 9.12514, cumulative = -1030.43
DILUPBiCGStab:  Solving for epsilon, Initial residual = 0, Final residual = 0, No Iterations 0
DILUPBiCGStab:  Solving for k, Initial residual = 0.00542504, Final residual = 0.00029561, No Iterations 1
ExecutionTime = 47.23 s  ClockTime = 48 s

Time = 986

DILUPBiCGStab:  Solving for Ux, Initial residual = 0.0096282, Final residual = 0.000251867, No Iterations 1
DILUPBiCGStab:  Solving for Uy, Initial residual = 0.0237238, Final residual = 0.000598869, No Iterations 1
DILUPBiCGStab:  Solving for Uz, Initial residual = 0.0203353, Final residual = 0.001047, No Iterations 1
DILUPBiCGStab:  Solving for e, Initial residual = 0.00375627, Final residual = 0.000196924, No Iterations 1
DICPCG:  Solving for p_rgh, Initial residual = 0.0487569, Final residual = 0.000468458, No Iterations 43
time step continuity errors : sum local = 48.8647, global = 13.2463, cumulative = -1017.19
DILUPBiCGStab:  Solving for epsilon, Initial residual = 0, Final residual = 0, No Iterations 0
DILUPBiCGStab:  Solving for k, Initial residual = 0.00545727, Final residual = 0.000289949, No Iterations 1
ExecutionTime = 47.26 s  ClockTime = 48 s

Time = 987

DILUPBiCGStab:  Solving for Ux, Initial residual = 0.00975448, Final residual = 0.000254272, No Iterations 1
DILUPBiCGStab:  Solving for Uy, Initial residual = 0.0235809, Final residual = 0.000565313, No Iterations 1
DILUPBiCGStab:  Solving for Uz, Initial residual = 0.0201541, Final residual = 0.0010805, No Iterations 1
DILUPBiCGStab:  Solving for e, Initial residual = 0.00378909, Final residual = 0.000198451, No Iterations 1
DICPCG:  Solving for p_rgh, Initial residual = 0.0507164, Final residual = 0.000346623, No Iterations 202
time step continuity errors : sum local = 36.2785, global = 0.000919832, cumulative = -1017.18
DILUPBiCGStab:  Solving for epsilon, Initial residual = 0, Final residual = 0, No Iterations 0
DILUPBiCGStab:  Solving for k, Initial residual = 0.00559162, Final residual = 0.00029475, No Iterations 1
ExecutionTime = 47.32 s  ClockTime = 48 s

Time = 988

DILUPBiCGStab:  Solving for Ux, Initial residual = 0.0102489, Final residual = 0.000266311, No Iterations 1
DILUPBiCGStab:  Solving for Uy, Initial residual = 0.023653, Final residual = 0.00063249, No Iterations 1
DILUPBiCGStab:  Solving for Uz, Initial residual = 0.020222, Final residual = 0.00100725, No Iterations 1
DILUPBiCGStab:  Solving for e, Initial residual = 0.00390689, Final residual = 0.000201118, No Iterations 1
DICPCG:  Solving for p_rgh, Initial residual = 0.0507688, Final residual = 0.000487651, No Iterations 36
time step continuity errors : sum local = 52.0042, global = 9.1422, cumulative = -1008.04
DILUPBiCGStab:  Solving for epsilon, Initial residual = 0, Final residual = 0, No Iterations 0
DILUPBiCGStab:  Solving for k, Initial residual = 0.00564464, Final residual = 0.000299699, No Iterations 1
ExecutionTime = 47.35 s  ClockTime = 48 s

Time = 989

DILUPBiCGStab:  Solving for Ux, Initial residual = 0.0103673, Final residual = 0.000269966, No Iterations 1
DILUPBiCGStab:  Solving for Uy, Initial residual = 0.0234191, Final residual = 0.000575809, No Iterations 1
DILUPBiCGStab:  Solving for Uz, Initial residual = 0.0200917, Final residual = 0.00104835, No Iterations 1
DILUPBiCGStab:  Solving for e, Initial residual = 0.00389734, Final residual = 0.00020332, No Iterations 1
DICPCG:  Solving for p_rgh, Initial residual = 0.049771, Final residual = 0.000485024, No Iterations 76
time step continuity errors : sum local = 50.9309, global = 1.261, cumulative = -1006.78
DILUPBiCGStab:  Solving for epsilon, Initial residual = 0, Final residual = 0, No Iterations 0
DILUPBiCGStab:  Solving for k, Initial residual = 0.00567001, Final residual = 0.000288485, No Iterations 1
ExecutionTime = 47.39 s  ClockTime = 48 s

Time = 990

DILUPBiCGStab:  Solving for Ux, Initial residual = 0.0106558, Final residual = 0.000273826, No Iterations 1
DILUPBiCGStab:  Solving for Uy, Initial residual = 0.0234425, Final residual = 0.000594846, No Iterations 1
DILUPBiCGStab:  Solving for Uz, Initial residual = 0.0196753, Final residual = 0.00100846, No Iterations 1
DILUPBiCGStab:  Solving for e, Initial residual = 0.00395241, Final residual = 0.000203598, No Iterations 1
DICPCG:  Solving for p_rgh, Initial residual = 0.0515093, Final residual = 0.000510049, No Iterations 94
time step continuity errors : sum local = 54.7252, global = 1.4549, cumulative = -1005.33
DILUPBiCGStab:  Solving for epsilon, Initial residual = 0, Final residual = 0, No Iterations 0
DILUPBiCGStab:  Solving for k, Initial residual = 0.00573591, Final residual = 0.000294981, No Iterations 1
ExecutionTime = 47.43 s  ClockTime = 48 s

Time = 991

DILUPBiCGStab:  Solving for Ux, Initial residual = 0.0109255, Final residual = 0.000286212, No Iterations 1
DILUPBiCGStab:  Solving for Uy, Initial residual = 0.0232697, Final residual = 0.000606218, No Iterations 1
DILUPBiCGStab:  Solving for Uz, Initial residual = 0.0194199, Final residual = 0.00102309, No Iterations 1
DILUPBiCGStab:  Solving for e, Initial residual = 0.00398934, Final residual = 0.000203678, No Iterations 1
DICPCG:  Solving for p_rgh, Initial residual = 0.0486934, Final residual = 0.000481401, No Iterations 37
time step continuity errors : sum local = 51.721, global = 9.75137, cumulative = -995.575
DILUPBiCGStab:  Solving for epsilon, Initial residual = 0, Final residual = 0, No Iterations 0
DILUPBiCGStab:  Solving for k, Initial residual = 0.00575236, Final residual = 0.00029237, No Iterations 1
ExecutionTime = 47.46 s  ClockTime = 48 s

Time = 992

DILUPBiCGStab:  Solving for Ux, Initial residual = 0.0110641, Final residual = 0.000289598, No Iterations 1
DILUPBiCGStab:  Solving for Uy, Initial residual = 0.0231719, Final residual = 0.000572562, No Iterations 1
DILUPBiCGStab:  Solving for Uz, Initial residual = 0.0193457, Final residual = 0.0010533, No Iterations 1
DILUPBiCGStab:  Solving for e, Initial residual = 0.00402022, Final residual = 0.000206415, No Iterations 1
DICPCG:  Solving for p_rgh, Initial residual = 0.0506761, Final residual = 0.00043291, No Iterations 200
time step continuity errors : sum local = 46.1911, global = 0.00813956, cumulative = -995.567
DILUPBiCGStab:  Solving for epsilon, Initial residual = 0, Final residual = 0, No Iterations 0
DILUPBiCGStab:  Solving for k, Initial residual = 0.00584411, Final residual = 0.000287191, No Iterations 1
ExecutionTime = 47.52 s  ClockTime = 48 s

Time = 993

DILUPBiCGStab:  Solving for Ux, Initial residual = 0.0115751, Final residual = 0.00030368, No Iterations 1
DILUPBiCGStab:  Solving for Uy, Initial residual = 0.0230307, Final residual = 0.000635721, No Iterations 1
DILUPBiCGStab:  Solving for Uz, Initial residual = 0.0190664, Final residual = 0.00104816, No Iterations 1
DILUPBiCGStab:  Solving for e, Initial residual = 0.00411693, Final residual = 0.000207501, No Iterations 1
DICPCG:  Solving for p_rgh, Initial residual = 0.0509637, Final residual = 0.000451127, No Iterations 200
time step continuity errors : sum local = 48.1892, global = 0.00257862, cumulative = -995.565
DILUPBiCGStab:  Solving for epsilon, Initial residual = 0, Final residual = 0, No Iterations 0
DILUPBiCGStab:  Solving for k, Initial residual = 0.00587881, Final residual = 0.000293784, No Iterations 1
ExecutionTime = 47.58 s  ClockTime = 48 s

Time = 994

DILUPBiCGStab:  Solving for Ux, Initial residual = 0.0118256, Final residual = 0.000307997, No Iterations 1
DILUPBiCGStab:  Solving for Uy, Initial residual = 0.0226283, Final residual = 0.0005761, No Iterations 1
DILUPBiCGStab:  Solving for Uz, Initial residual = 0.0188388, Final residual = 0.00104066, No Iterations 1
DILUPBiCGStab:  Solving for e, Initial residual = 0.00415684, Final residual = 0.000212051, No Iterations 1
DICPCG:  Solving for p_rgh, Initial residual = 0.052887, Final residual = 0.000522504, No Iterations 66
time step continuity errors : sum local = 51.5172, global = 6.89651, cumulative = -988.668
DILUPBiCGStab:  Solving for epsilon, Initial residual = 0, Final residual = 0, No Iterations 0
DILUPBiCGStab:  Solving for k, Initial residual = 0.00591857, Final residual = 0.000285605, No Iterations 1
ExecutionTime = 47.62 s  ClockTime = 48 s

Time = 995

DILUPBiCGStab:  Solving for Ux, Initial residual = 0.0120827, Final residual = 0.000312847, No Iterations 1
DILUPBiCGStab:  Solving for Uy, Initial residual = 0.0225892, Final residual = 0.000598556, No Iterations 1
DILUPBiCGStab:  Solving for Uz, Initial residual = 0.018662, Final residual = 0.00111689, No Iterations 1
DILUPBiCGStab:  Solving for e, Initial residual = 0.00418415, Final residual = 0.000211872, No Iterations 1
DICPCG:  Solving for p_rgh, Initial residual = 0.0575063, Final residual = 0.00057409, No Iterations 200
time step continuity errors : sum local = 55.9828, global = -0.0257924, cumulative = -988.694
DILUPBiCGStab:  Solving for epsilon, Initial residual = 0, Final residual = 0, No Iterations 0
DILUPBiCGStab:  Solving for k, Initial residual = 0.00596516, Final residual = 0.000285959, No Iterations 1
ExecutionTime = 47.68 s  ClockTime = 48 s

Time = 996

DILUPBiCGStab:  Solving for Ux, Initial residual = 0.0124782, Final residual = 0.000323361, No Iterations 1
DILUPBiCGStab:  Solving for Uy, Initial residual = 0.0222436, Final residual = 0.000608355, No Iterations 1
DILUPBiCGStab:  Solving for Uz, Initial residual = 0.0184872, Final residual = 0.00104016, No Iterations 1
DILUPBiCGStab:  Solving for e, Initial residual = 0.00423167, Final residual = 0.000210324, No Iterations 1
DICPCG:  Solving for p_rgh, Initial residual = 0.0569577, Final residual = 0.000518899, No Iterations 193
time step continuity errors : sum local = 48.0738, global = -0.325501, cumulative = -989.019
DILUPBiCGStab:  Solving for epsilon, Initial residual = 0, Final residual = 0, No Iterations 0
DILUPBiCGStab:  Solving for k, Initial residual = 0.0059899, Final residual = 0.000292451, No Iterations 1
ExecutionTime = 47.73 s  ClockTime = 48 s

Time = 997

DILUPBiCGStab:  Solving for Ux, Initial residual = 0.0126986, Final residual = 0.000330471, No Iterations 1
DILUPBiCGStab:  Solving for Uy, Initial residual = 0.0219506, Final residual = 0.000571295, No Iterations 1
DILUPBiCGStab:  Solving for Uz, Initial residual = 0.0180213, Final residual = 0.00107639, No Iterations 1
DILUPBiCGStab:  Solving for e, Initial residual = 0.00428676, Final residual = 0.000215366, No Iterations 1
DICPCG:  Solving for p_rgh, Initial residual = 0.0601641, Final residual = 0.000486608, No Iterations 202
time step continuity errors : sum local = 43.9517, global = -0.0114615, cumulative = -989.031
DILUPBiCGStab:  Solving for epsilon, Initial residual = 0, Final residual = 0, No Iterations 0
DILUPBiCGStab:  Solving for k, Initial residual = 0.00605173, Final residual = 0.000279725, No Iterations 1
ExecutionTime = 47.79 s  ClockTime = 49 s

Time = 998

DILUPBiCGStab:  Solving for Ux, Initial residual = 0.0131716, Final residual = 0.000341325, No Iterations 1
DILUPBiCGStab:  Solving for Uy, Initial residual = 0.0218008, Final residual = 0.000625505, No Iterations 1
DILUPBiCGStab:  Solving for Uz, Initial residual = 0.0178252, Final residual = 0.00102566, No Iterations 1
DILUPBiCGStab:  Solving for e, Initial residual = 0.00433522, Final residual = 0.000216302, No Iterations 1
DICPCG:  Solving for p_rgh, Initial residual = 0.0635728, Final residual = 0.000467172, No Iterations 204
time step continuity errors : sum local = 41.134, global = 0.0249542, cumulative = -989.006
DILUPBiCGStab:  Solving for epsilon, Initial residual = 0, Final residual = 0, No Iterations 0
DILUPBiCGStab:  Solving for k, Initial residual = 0.00606732, Final residual = 0.000283648, No Iterations 1
ExecutionTime = 47.85 s  ClockTime = 49 s

Time = 999

DILUPBiCGStab:  Solving for Ux, Initial residual = 0.0134612, Final residual = 0.000351271, No Iterations 1
DILUPBiCGStab:  Solving for Uy, Initial residual = 0.0212209, Final residual = 0.000572171, No Iterations 1
DILUPBiCGStab:  Solving for Uz, Initial residual = 0.0175051, Final residual = 0.00110086, No Iterations 1
DILUPBiCGStab:  Solving for e, Initial residual = 0.00436321, Final residual = 0.000211084, No Iterations 1
DICPCG:  Solving for p_rgh, Initial residual = 0.062139, Final residual = 0.000445495, No Iterations 205
time step continuity errors : sum local = 38.2432, global = -0.00808288, cumulative = -989.014
DILUPBiCGStab:  Solving for epsilon, Initial residual = 0, Final residual = 0, No Iterations 0
DILUPBiCGStab:  Solving for k, Initial residual = 0.00610536, Final residual = 0.000289794, No Iterations 1
ExecutionTime = 47.92 s  ClockTime = 49 s

Time = 1000

DILUPBiCGStab:  Solving for Ux, Initial residual = 0.013794, Final residual = 0.0003578, No Iterations 1
DILUPBiCGStab:  Solving for Uy, Initial residual = 0.0208895, Final residual = 0.000587548, No Iterations 1
DILUPBiCGStab:  Solving for Uz, Initial residual = 0.0172734, Final residual = 0.00108001, No Iterations 1
DILUPBiCGStab:  Solving for e, Initial residual = 0.00444249, Final residual = 0.000216269, No Iterations 1
DICPCG:  Solving for p_rgh, Initial residual = 0.0697136, Final residual = 0.000685275, No Iterations 207
time step continuity errors : sum local = 57.934, global = -0.0221682, cumulative = -989.036
DILUPBiCGStab:  Solving for epsilon, Initial residual = 0, Final residual = 0, No Iterations 0
DILUPBiCGStab:  Solving for k, Initial residual = 0.00615832, Final residual = 0.000279743, No Iterations 1
ExecutionTime = 48.11 s  ClockTime = 49 s

End

