/*---------------------------------------------------------------------------*\
  =========                 |
  \\      /  F ield         | OpenFOAM: The Open Source CFD Toolbox
   \\    /   O peration     | Website:  https://openfoam.org
    \\  /    A nd           | Version:  8
     \\/     M anipulation  |
\*---------------------------------------------------------------------------*/
Build  : 8-1c9b5879390b
Exec   : buoyantSimpleFoam
Date   : Jan 27 2025
Time   : 14:42:01
Host   : "658dd9edf29b"
PID    : 788
I/O    : uncollated
Case   : /home/openfoam/run/180bentPipe/Re5000/q-1000
nProcs : 1
sigFpe : Enabling floating point exception trapping (FOAM_SIGFPE).
fileModificationChecking : Monitoring run-time modified files using timeStampMaster (fileModificationSkew 10)
allowSystemOperations : Allowing user-supplied system call operations

// * * * * * * * * * * * * * * * * * * * * * * * * * * * * * * * * * * * * * //
Create time

Create mesh for time = 0


SIMPLE: Convergence criteria found
        p_rgh: tolerance 0.01
        U: tolerance 0.0001
        e: tolerance 0.01
        "(k|epsilon|omega)": tolerance 0.001

Reading thermophysical properties

Selecting thermodynamics package 
{
    type            heRhoThermo;
    mixture         pureMixture;
    transport       const;
    thermo          eConst;
    equationOfState Boussinesq;
    specie          specie;
    energy          sensibleInternalEnergy;
}

Reading field U

Reading/calculating face flux field phi

Creating turbulence model

Selecting turbulence model type RAS
Selecting RAS turbulence model kEpsilon
RAS
{
    RASModel        kEpsilon;
    turbulence      on;
    printCoeffs     on;
    Cmu             0.09;
    C1              1.44;
    C2              1.92;
    C3              0;
    sigmak          1;
    sigmaEps        1.3;
}

Creating thermophysical transport model

Selecting thermophysical transport type RAS
Selecting default RAS thermophysical transport model eddyDiffusivity

Reading g

Reading hRef
Calculating field g.h


Reading pRef
Reading field p_rgh

--> FOAM Warning : 
    From function const Foam::HashTable<Foam::List<int>, Foam::word>& Foam::polyBoundaryMesh::groupPatchIDs() const
    in file meshes/polyMesh/polyBoundaryMesh/polyBoundaryMesh.C at line 473
    Removing patchGroup 'wall' which clashes with patch 0 of the same name.
No MRF models present

Radiation model not active: radiationProperties not found
Selecting radiationModel none
No finite volume options present

Starting time loop

Time = 1

DILUPBiCGStab:  Solving for Ux, Initial residual = 1, Final residual = 0.0183137, No Iterations 1
DILUPBiCGStab:  Solving for Uy, Initial residual = 1, Final residual = 0.0146272, No Iterations 1
DILUPBiCGStab:  Solving for Uz, Initial residual = 1, Final residual = 0.0633914, No Iterations 1
DILUPBiCGStab:  Solving for e, Initial residual = 1, Final residual = 3.44587e-05, No Iterations 1
DICPCG:  Solving for p_rgh, Initial residual = 0.992903, Final residual = 0.00944051, No Iterations 166
time step continuity errors : sum local = 198.054, global = -0.778546, cumulative = -0.778546
DILUPBiCGStab:  Solving for epsilon, Initial residual = 0, Final residual = 0, No Iterations 0
DILUPBiCGStab:  Solving for k, Initial residual = 1, Final residual = 0.0122884, No Iterations 1
ExecutionTime = 0.23 s  ClockTime = 0 s

Time = 2

DILUPBiCGStab:  Solving for Ux, Initial residual = 0.638005, Final residual = 0.00728669, No Iterations 1
DILUPBiCGStab:  Solving for Uy, Initial residual = 0.649809, Final residual = 0.00894951, No Iterations 1
DILUPBiCGStab:  Solving for Uz, Initial residual = 0.606532, Final residual = 0.00214, No Iterations 1
DILUPBiCGStab:  Solving for e, Initial residual = 0.201533, Final residual = 3.00263e-05, No Iterations 1
DICPCG:  Solving for p_rgh, Initial residual = 0.0502386, Final residual = 0.000494032, No Iterations 189
time step continuity errors : sum local = 332.467, global = -3.01531, cumulative = -3.79386
DILUPBiCGStab:  Solving for epsilon, Initial residual = 0, Final residual = 0, No Iterations 0
DILUPBiCGStab:  Solving for k, Initial residual = 0.212273, Final residual = 8.53079e-05, No Iterations 1
ExecutionTime = 0.29 s  ClockTime = 0 s

Time = 3

DILUPBiCGStab:  Solving for Ux, Initial residual = 0.203861, Final residual = 0.00233255, No Iterations 1
DILUPBiCGStab:  Solving for Uy, Initial residual = 0.202841, Final residual = 0.00608325, No Iterations 1
DILUPBiCGStab:  Solving for Uz, Initial residual = 0.478717, Final residual = 0.00283429, No Iterations 1
DILUPBiCGStab:  Solving for e, Initial residual = 0.123158, Final residual = 0.000673657, No Iterations 1
DICPCG:  Solving for p_rgh, Initial residual = 0.143453, Final residual = 0.00112393, No Iterations 189
time step continuity errors : sum local = 303.471, global = -1.81109, cumulative = -5.60495
DILUPBiCGStab:  Solving for epsilon, Initial residual = 0, Final residual = 0, No Iterations 0
DILUPBiCGStab:  Solving for k, Initial residual = 0.142319, Final residual = 0.0018745, No Iterations 1
ExecutionTime = 0.35 s  ClockTime = 1 s

Time = 4

DILUPBiCGStab:  Solving for Ux, Initial residual = 0.321393, Final residual = 0.00497022, No Iterations 1
DILUPBiCGStab:  Solving for Uy, Initial residual = 0.342921, Final residual = 0.0076191, No Iterations 1
DILUPBiCGStab:  Solving for Uz, Initial residual = 0.265261, Final residual = 0.00296932, No Iterations 1
DILUPBiCGStab:  Solving for e, Initial residual = 0.0989066, Final residual = 0.000335909, No Iterations 1
DICPCG:  Solving for p_rgh, Initial residual = 0.0407003, Final residual = 0.000357323, No Iterations 166
time step continuity errors : sum local = 215.565, global = 5.06029, cumulative = -0.544657
DILUPBiCGStab:  Solving for epsilon, Initial residual = 0, Final residual = 0, No Iterations 0
DILUPBiCGStab:  Solving for k, Initial residual = 0.0877668, Final residual = 0.000998104, No Iterations 1
ExecutionTime = 0.4 s  ClockTime = 1 s

Time = 5

DILUPBiCGStab:  Solving for Ux, Initial residual = 0.299376, Final residual = 0.00890975, No Iterations 1
DILUPBiCGStab:  Solving for Uy, Initial residual = 0.379857, Final residual = 0.0118802, No Iterations 1
DILUPBiCGStab:  Solving for Uz, Initial residual = 0.325801, Final residual = 0.00211826, No Iterations 1
DILUPBiCGStab:  Solving for e, Initial residual = 0.0824563, Final residual = 0.000224519, No Iterations 1
DICPCG:  Solving for p_rgh, Initial residual = 0.148817, Final residual = 0.00113247, No Iterations 180
time step continuity errors : sum local = 227.631, global = 3.52715, cumulative = 2.9825
DILUPBiCGStab:  Solving for epsilon, Initial residual = 0, Final residual = 0, No Iterations 0
DILUPBiCGStab:  Solving for k, Initial residual = 0.0705978, Final residual = 0.00116542, No Iterations 1
ExecutionTime = 0.46 s  ClockTime = 1 s

Time = 6

DILUPBiCGStab:  Solving for Ux, Initial residual = 0.103355, Final residual = 0.00499701, No Iterations 1
DILUPBiCGStab:  Solving for Uy, Initial residual = 0.219584, Final residual = 0.0156514, No Iterations 1
DILUPBiCGStab:  Solving for Uz, Initial residual = 0.207236, Final residual = 0.00381408, No Iterations 1
DILUPBiCGStab:  Solving for e, Initial residual = 0.0709557, Final residual = 0.00027763, No Iterations 1
DICPCG:  Solving for p_rgh, Initial residual = 0.664725, Final residual = 0.00541481, No Iterations 205
time step continuity errors : sum local = 238.117, global = -0.352741, cumulative = 2.62976
DILUPBiCGStab:  Solving for epsilon, Initial residual = 0, Final residual = 0, No Iterations 0
DILUPBiCGStab:  Solving for k, Initial residual = 0.058212, Final residual = 0.00134, No Iterations 1
ExecutionTime = 0.54 s  ClockTime = 1 s

Time = 7

DILUPBiCGStab:  Solving for Ux, Initial residual = 0.185201, Final residual = 0.0156511, No Iterations 1
DILUPBiCGStab:  Solving for Uy, Initial residual = 0.290993, Final residual = 0.0233468, No Iterations 1
DILUPBiCGStab:  Solving for Uz, Initial residual = 0.190846, Final residual = 0.00773856, No Iterations 1
DILUPBiCGStab:  Solving for e, Initial residual = 0.0614864, Final residual = 0.000450661, No Iterations 1
DICPCG:  Solving for p_rgh, Initial residual = 0.191536, Final residual = 0.00135913, No Iterations 204
time step continuity errors : sum local = 191.728, global = -0.106913, cumulative = 2.52284
DILUPBiCGStab:  Solving for epsilon, Initial residual = 0, Final residual = 0, No Iterations 0
DILUPBiCGStab:  Solving for k, Initial residual = 0.0469641, Final residual = 0.00110657, No Iterations 1
ExecutionTime = 0.6 s  ClockTime = 1 s

Time = 8

DILUPBiCGStab:  Solving for Ux, Initial residual = 0.154948, Final residual = 0.0136738, No Iterations 1
DILUPBiCGStab:  Solving for Uy, Initial residual = 0.227964, Final residual = 0.019078, No Iterations 1
DILUPBiCGStab:  Solving for Uz, Initial residual = 0.147467, Final residual = 0.00675738, No Iterations 1
DILUPBiCGStab:  Solving for e, Initial residual = 0.0486064, Final residual = 0.000369967, No Iterations 1
DICPCG:  Solving for p_rgh, Initial residual = 0.230793, Final residual = 0.00223271, No Iterations 204
time step continuity errors : sum local = 302.941, global = 0.599818, cumulative = 3.12266
DILUPBiCGStab:  Solving for epsilon, Initial residual = 0, Final residual = 0, No Iterations 0
DILUPBiCGStab:  Solving for k, Initial residual = 0.0399649, Final residual = 0.00102289, No Iterations 1
ExecutionTime = 0.66 s  ClockTime = 1 s

Time = 9

DILUPBiCGStab:  Solving for Ux, Initial residual = 0.0654633, Final residual = 0.00479502, No Iterations 1
DILUPBiCGStab:  Solving for Uy, Initial residual = 0.116758, Final residual = 0.00147654, No Iterations 1
DILUPBiCGStab:  Solving for Uz, Initial residual = 0.134732, Final residual = 0.00594501, No Iterations 1
DILUPBiCGStab:  Solving for e, Initial residual = 0.0435048, Final residual = 0.00037016, No Iterations 1
DICPCG:  Solving for p_rgh, Initial residual = 0.505434, Final residual = 0.00414066, No Iterations 208
time step continuity errors : sum local = 268.225, global = -0.325885, cumulative = 2.79678
DILUPBiCGStab:  Solving for epsilon, Initial residual = 0, Final residual = 0, No Iterations 0
DILUPBiCGStab:  Solving for k, Initial residual = 0.0353084, Final residual = 0.00100935, No Iterations 1
ExecutionTime = 0.72 s  ClockTime = 1 s

Time = 10

DILUPBiCGStab:  Solving for Ux, Initial residual = 0.0999056, Final residual = 0.00932885, No Iterations 1
DILUPBiCGStab:  Solving for Uy, Initial residual = 0.147009, Final residual = 0.0126574, No Iterations 1
DILUPBiCGStab:  Solving for Uz, Initial residual = 0.143366, Final residual = 0.0056851, No Iterations 1
DILUPBiCGStab:  Solving for e, Initial residual = 0.0388503, Final residual = 0.000380505, No Iterations 1
DICPCG:  Solving for p_rgh, Initial residual = 0.389519, Final residual = 0.00367742, No Iterations 102
time step continuity errors : sum local = 260.844, global = -17.0472, cumulative = -14.2504
DILUPBiCGStab:  Solving for epsilon, Initial residual = 0, Final residual = 0, No Iterations 0
DILUPBiCGStab:  Solving for k, Initial residual = 0.0317296, Final residual = 0.00104054, No Iterations 1
ExecutionTime = 0.76 s  ClockTime = 1 s

Time = 11

DILUPBiCGStab:  Solving for Ux, Initial residual = 0.0950206, Final residual = 0.00137132, No Iterations 1
DILUPBiCGStab:  Solving for Uy, Initial residual = 0.154533, Final residual = 0.00170069, No Iterations 1
DILUPBiCGStab:  Solving for Uz, Initial residual = 0.117082, Final residual = 0.0062395, No Iterations 1
DILUPBiCGStab:  Solving for e, Initial residual = 0.0317429, Final residual = 0.00026749, No Iterations 1
DICPCG:  Solving for p_rgh, Initial residual = 0.2992, Final residual = 0.00286896, No Iterations 202
time step continuity errors : sum local = 230.075, global = 1.01254, cumulative = -13.2379
DILUPBiCGStab:  Solving for epsilon, Initial residual = 0, Final residual = 0, No Iterations 0
DILUPBiCGStab:  Solving for k, Initial residual = 0.0287443, Final residual = 0.00107594, No Iterations 1
ExecutionTime = 0.82 s  ClockTime = 1 s

Time = 12

DILUPBiCGStab:  Solving for Ux, Initial residual = 0.0513264, Final residual = 0.00438177, No Iterations 1
DILUPBiCGStab:  Solving for Uy, Initial residual = 0.0973719, Final residual = 0.00104542, No Iterations 1
DILUPBiCGStab:  Solving for Uz, Initial residual = 0.0956602, Final residual = 0.00539521, No Iterations 1
DILUPBiCGStab:  Solving for e, Initial residual = 0.0286522, Final residual = 0.000207779, No Iterations 1
DICPCG:  Solving for p_rgh, Initial residual = 0.466961, Final residual = 0.00443744, No Iterations 200
time step continuity errors : sum local = 193.762, global = -0.369072, cumulative = -13.607
DILUPBiCGStab:  Solving for epsilon, Initial residual = 0, Final residual = 0, No Iterations 0
DILUPBiCGStab:  Solving for k, Initial residual = 0.026221, Final residual = 0.00108088, No Iterations 1
ExecutionTime = 0.88 s  ClockTime = 1 s

Time = 13

DILUPBiCGStab:  Solving for Ux, Initial residual = 0.0645819, Final residual = 0.00537983, No Iterations 1
DILUPBiCGStab:  Solving for Uy, Initial residual = 0.102225, Final residual = 0.00108427, No Iterations 1
DILUPBiCGStab:  Solving for Uz, Initial residual = 0.0811467, Final residual = 0.00495726, No Iterations 1
DILUPBiCGStab:  Solving for e, Initial residual = 0.0262184, Final residual = 0.000186469, No Iterations 1
DICPCG:  Solving for p_rgh, Initial residual = 0.218299, Final residual = 0.00176133, No Iterations 200
time step continuity errors : sum local = 139.224, global = 0.265978, cumulative = -13.341
DILUPBiCGStab:  Solving for epsilon, Initial residual = 0, Final residual = 0, No Iterations 0
DILUPBiCGStab:  Solving for k, Initial residual = 0.0241938, Final residual = 0.00108374, No Iterations 1
ExecutionTime = 0.94 s  ClockTime = 1 s

Time = 14

DILUPBiCGStab:  Solving for Ux, Initial residual = 0.0503362, Final residual = 0.00426042, No Iterations 1
DILUPBiCGStab:  Solving for Uy, Initial residual = 0.0795563, Final residual = 0.00730891, No Iterations 1
DILUPBiCGStab:  Solving for Uz, Initial residual = 0.0855223, Final residual = 0.00433496, No Iterations 1
DILUPBiCGStab:  Solving for e, Initial residual = 0.023298, Final residual = 0.000143278, No Iterations 1
DICPCG:  Solving for p_rgh, Initial residual = 0.256015, Final residual = 0.00199642, No Iterations 201
time step continuity errors : sum local = 128.047, global = -0.900029, cumulative = -14.241
DILUPBiCGStab:  Solving for epsilon, Initial residual = 0, Final residual = 0, No Iterations 0
DILUPBiCGStab:  Solving for k, Initial residual = 0.0224139, Final residual = 0.00105121, No Iterations 1
ExecutionTime = 1 s  ClockTime = 1 s

Time = 15

DILUPBiCGStab:  Solving for Ux, Initial residual = 0.0335965, Final residual = 0.00273709, No Iterations 1
DILUPBiCGStab:  Solving for Uy, Initial residual = 0.057319, Final residual = 0.00457404, No Iterations 1
DILUPBiCGStab:  Solving for Uz, Initial residual = 0.0818172, Final residual = 0.00435188, No Iterations 1
DILUPBiCGStab:  Solving for e, Initial residual = 0.0221267, Final residual = 0.000147091, No Iterations 1
DICPCG:  Solving for p_rgh, Initial residual = 0.443583, Final residual = 0.00367104, No Iterations 201
time step continuity errors : sum local = 109.999, global = -0.381009, cumulative = -14.622
DILUPBiCGStab:  Solving for epsilon, Initial residual = 0, Final residual = 0, No Iterations 0
DILUPBiCGStab:  Solving for k, Initial residual = 0.0209055, Final residual = 0.000993714, No Iterations 1
ExecutionTime = 1.06 s  ClockTime = 1 s

Time = 16

DILUPBiCGStab:  Solving for Ux, Initial residual = 0.0408826, Final residual = 0.00375724, No Iterations 1
DILUPBiCGStab:  Solving for Uy, Initial residual = 0.0689903, Final residual = 0.00493865, No Iterations 1
DILUPBiCGStab:  Solving for Uz, Initial residual = 0.0766244, Final residual = 0.00408237, No Iterations 1
DILUPBiCGStab:  Solving for e, Initial residual = 0.020524, Final residual = 0.000135487, No Iterations 1
DICPCG:  Solving for p_rgh, Initial residual = 0.410889, Final residual = 0.0037457, No Iterations 201
time step continuity errors : sum local = 113.165, global = 0.162447, cumulative = -14.4596
DILUPBiCGStab:  Solving for epsilon, Initial residual = 0, Final residual = 0, No Iterations 0
DILUPBiCGStab:  Solving for k, Initial residual = 0.0195112, Final residual = 0.000929419, No Iterations 1
ExecutionTime = 1.12 s  ClockTime = 1 s

Time = 17

DILUPBiCGStab:  Solving for Ux, Initial residual = 0.0321884, Final residual = 0.00300616, No Iterations 1
DILUPBiCGStab:  Solving for Uy, Initial residual = 0.0601504, Final residual = 0.00401932, No Iterations 1
DILUPBiCGStab:  Solving for Uz, Initial residual = 0.0783102, Final residual = 0.00399423, No Iterations 1
DILUPBiCGStab:  Solving for e, Initial residual = 0.0189177, Final residual = 0.000113492, No Iterations 1
DICPCG:  Solving for p_rgh, Initial residual = 0.57429, Final residual = 0.00458044, No Iterations 193
time step continuity errors : sum local = 92.1106, global = 0.386315, cumulative = -14.0733
DILUPBiCGStab:  Solving for epsilon, Initial residual = 0, Final residual = 0, No Iterations 0
DILUPBiCGStab:  Solving for k, Initial residual = 0.0183285, Final residual = 0.000871184, No Iterations 1
ExecutionTime = 1.18 s  ClockTime = 1 s

Time = 18

DILUPBiCGStab:  Solving for Ux, Initial residual = 0.0253829, Final residual = 0.00165503, No Iterations 1
DILUPBiCGStab:  Solving for Uy, Initial residual = 0.0548162, Final residual = 0.00385359, No Iterations 1
DILUPBiCGStab:  Solving for Uz, Initial residual = 0.0780933, Final residual = 0.00382324, No Iterations 1
DILUPBiCGStab:  Solving for e, Initial residual = 0.0180222, Final residual = 0.000107137, No Iterations 1
DICPCG:  Solving for p_rgh, Initial residual = 0.224509, Final residual = 0.00222474, No Iterations 179
time step continuity errors : sum local = 96.3574, global = -2.31123, cumulative = -16.3845
DILUPBiCGStab:  Solving for epsilon, Initial residual = 0, Final residual = 0, No Iterations 0
DILUPBiCGStab:  Solving for k, Initial residual = 0.017341, Final residual = 0.000835831, No Iterations 1
ExecutionTime = 1.24 s  ClockTime = 1 s

Time = 19

DILUPBiCGStab:  Solving for Ux, Initial residual = 0.0274074, Final residual = 0.00168578, No Iterations 1
DILUPBiCGStab:  Solving for Uy, Initial residual = 0.050289, Final residual = 0.00392877, No Iterations 1
DILUPBiCGStab:  Solving for Uz, Initial residual = 0.0744864, Final residual = 0.00367625, No Iterations 1
DILUPBiCGStab:  Solving for e, Initial residual = 0.0170489, Final residual = 0.000102576, No Iterations 1
DICPCG:  Solving for p_rgh, Initial residual = 0.226773, Final residual = 0.00222125, No Iterations 185
time step continuity errors : sum local = 88.1787, global = -3.91916, cumulative = -20.3037
DILUPBiCGStab:  Solving for epsilon, Initial residual = 0, Final residual = 0, No Iterations 0
DILUPBiCGStab:  Solving for k, Initial residual = 0.0166335, Final residual = 0.000815138, No Iterations 1
ExecutionTime = 1.29 s  ClockTime = 1 s

Time = 20

DILUPBiCGStab:  Solving for Ux, Initial residual = 0.0231845, Final residual = 0.00171472, No Iterations 1
DILUPBiCGStab:  Solving for Uy, Initial residual = 0.0355441, Final residual = 0.00280666, No Iterations 1
DILUPBiCGStab:  Solving for Uz, Initial residual = 0.074334, Final residual = 0.00347405, No Iterations 1
DILUPBiCGStab:  Solving for e, Initial residual = 0.0161385, Final residual = 9.34445e-05, No Iterations 1
DICPCG:  Solving for p_rgh, Initial residual = 0.279856, Final residual = 0.00250443, No Iterations 203
time step continuity errors : sum local = 78.8652, global = 0.11878, cumulative = -20.1849
DILUPBiCGStab:  Solving for epsilon, Initial residual = 0, Final residual = 0, No Iterations 0
DILUPBiCGStab:  Solving for k, Initial residual = 0.0160637, Final residual = 0.000782208, No Iterations 1
ExecutionTime = 1.35 s  ClockTime = 2 s

Time = 21

DILUPBiCGStab:  Solving for Ux, Initial residual = 0.0217768, Final residual = 0.00189878, No Iterations 1
DILUPBiCGStab:  Solving for Uy, Initial residual = 0.0357369, Final residual = 0.00253358, No Iterations 1
DILUPBiCGStab:  Solving for Uz, Initial residual = 0.0781414, Final residual = 0.00316197, No Iterations 1
DILUPBiCGStab:  Solving for e, Initial residual = 0.0154313, Final residual = 8.58987e-05, No Iterations 1
DICPCG:  Solving for p_rgh, Initial residual = 0.340328, Final residual = 0.00256717, No Iterations 202
time step continuity errors : sum local = 57.3618, global = -0.0728848, cumulative = -20.2578
DILUPBiCGStab:  Solving for epsilon, Initial residual = 0, Final residual = 0, No Iterations 0
DILUPBiCGStab:  Solving for k, Initial residual = 0.0154201, Final residual = 0.000771295, No Iterations 1
ExecutionTime = 1.41 s  ClockTime = 2 s

Time = 22

DILUPBiCGStab:  Solving for Ux, Initial residual = 0.0211819, Final residual = 0.00202632, No Iterations 1
DILUPBiCGStab:  Solving for Uy, Initial residual = 0.0376599, Final residual = 0.00282575, No Iterations 1
DILUPBiCGStab:  Solving for Uz, Initial residual = 0.0681118, Final residual = 0.00314152, No Iterations 1
DILUPBiCGStab:  Solving for e, Initial residual = 0.0147612, Final residual = 8.31307e-05, No Iterations 1
DICPCG:  Solving for p_rgh, Initial residual = 0.367952, Final residual = 0.00343469, No Iterations 170
time step continuity errors : sum local = 65.5418, global = -0.82111, cumulative = -21.0789
DILUPBiCGStab:  Solving for epsilon, Initial residual = 0, Final residual = 0, No Iterations 0
DILUPBiCGStab:  Solving for k, Initial residual = 0.0149746, Final residual = 0.000789132, No Iterations 1
ExecutionTime = 1.46 s  ClockTime = 2 s

Time = 23

DILUPBiCGStab:  Solving for Ux, Initial residual = 0.0179883, Final residual = 0.00170994, No Iterations 1
DILUPBiCGStab:  Solving for Uy, Initial residual = 0.0358271, Final residual = 0.00272372, No Iterations 1
DILUPBiCGStab:  Solving for Uz, Initial residual = 0.0649445, Final residual = 0.00306175, No Iterations 1
DILUPBiCGStab:  Solving for e, Initial residual = 0.014102, Final residual = 8.23805e-05, No Iterations 1
DICPCG:  Solving for p_rgh, Initial residual = 0.283902, Final residual = 0.00270329, No Iterations 168
time step continuity errors : sum local = 59.3934, global = 2.05933, cumulative = -19.0196
DILUPBiCGStab:  Solving for epsilon, Initial residual = 0, Final residual = 0, No Iterations 0
DILUPBiCGStab:  Solving for k, Initial residual = 0.0146633, Final residual = 0.000817293, No Iterations 1
ExecutionTime = 1.51 s  ClockTime = 2 s

Time = 24

DILUPBiCGStab:  Solving for Ux, Initial residual = 0.0166007, Final residual = 0.00136219, No Iterations 1
DILUPBiCGStab:  Solving for Uy, Initial residual = 0.0383563, Final residual = 0.00302412, No Iterations 1
DILUPBiCGStab:  Solving for Uz, Initial residual = 0.0602286, Final residual = 0.00277082, No Iterations 1
DILUPBiCGStab:  Solving for e, Initial residual = 0.0135279, Final residual = 8.48132e-05, No Iterations 1
DICPCG:  Solving for p_rgh, Initial residual = 0.208775, Final residual = 0.00166883, No Iterations 203
time step continuity errors : sum local = 44.9599, global = -0.126433, cumulative = -19.146
DILUPBiCGStab:  Solving for epsilon, Initial residual = 0, Final residual = 0, No Iterations 0
DILUPBiCGStab:  Solving for k, Initial residual = 0.0145029, Final residual = 0.000852897, No Iterations 1
ExecutionTime = 1.57 s  ClockTime = 2 s

Time = 25

DILUPBiCGStab:  Solving for Ux, Initial residual = 0.0159324, Final residual = 0.00124955, No Iterations 1
DILUPBiCGStab:  Solving for Uy, Initial residual = 0.0380861, Final residual = 0.00308613, No Iterations 1
DILUPBiCGStab:  Solving for Uz, Initial residual = 0.0578863, Final residual = 0.00242418, No Iterations 1
DILUPBiCGStab:  Solving for e, Initial residual = 0.0129003, Final residual = 8.63343e-05, No Iterations 1
DICPCG:  Solving for p_rgh, Initial residual = 0.194363, Final residual = 0.00161437, No Iterations 208
time step continuity errors : sum local = 48.5571, global = 0.0845371, cumulative = -19.0614
DILUPBiCGStab:  Solving for epsilon, Initial residual = 0, Final residual = 0, No Iterations 0
DILUPBiCGStab:  Solving for k, Initial residual = 0.0144797, Final residual = 0.000867254, No Iterations 1
ExecutionTime = 1.63 s  ClockTime = 2 s

Time = 26

DILUPBiCGStab:  Solving for Ux, Initial residual = 0.0148905, Final residual = 0.00123077, No Iterations 1
DILUPBiCGStab:  Solving for Uy, Initial residual = 0.0353561, Final residual = 0.00305912, No Iterations 1
DILUPBiCGStab:  Solving for Uz, Initial residual = 0.0572146, Final residual = 0.00248022, No Iterations 1
DILUPBiCGStab:  Solving for e, Initial residual = 0.0124169, Final residual = 9.32043e-05, No Iterations 1
DICPCG:  Solving for p_rgh, Initial residual = 0.197333, Final residual = 0.00177714, No Iterations 199
time step continuity errors : sum local = 55.1647, global = 0.116151, cumulative = -18.9453
DILUPBiCGStab:  Solving for epsilon, Initial residual = 0, Final residual = 0, No Iterations 0
DILUPBiCGStab:  Solving for k, Initial residual = 0.014404, Final residual = 0.000892379, No Iterations 1
ExecutionTime = 1.69 s  ClockTime = 2 s

Time = 27

DILUPBiCGStab:  Solving for Ux, Initial residual = 0.0151565, Final residual = 0.00133789, No Iterations 1
DILUPBiCGStab:  Solving for Uy, Initial residual = 0.0342433, Final residual = 0.00326118, No Iterations 1
DILUPBiCGStab:  Solving for Uz, Initial residual = 0.0533843, Final residual = 0.00235905, No Iterations 1
DILUPBiCGStab:  Solving for e, Initial residual = 0.012106, Final residual = 9.15334e-05, No Iterations 1
DICPCG:  Solving for p_rgh, Initial residual = 0.228716, Final residual = 0.0022663, No Iterations 83
time step continuity errors : sum local = 49.3969, global = -2.27921, cumulative = -21.2245
DILUPBiCGStab:  Solving for epsilon, Initial residual = 0, Final residual = 0, No Iterations 0
DILUPBiCGStab:  Solving for k, Initial residual = 0.0142355, Final residual = 0.000927079, No Iterations 1
ExecutionTime = 1.73 s  ClockTime = 2 s

Time = 28

DILUPBiCGStab:  Solving for Ux, Initial residual = 0.0153634, Final residual = 0.00140325, No Iterations 1
DILUPBiCGStab:  Solving for Uy, Initial residual = 0.0311357, Final residual = 0.000351503, No Iterations 1
DILUPBiCGStab:  Solving for Uz, Initial residual = 0.0533383, Final residual = 0.00233322, No Iterations 1
DILUPBiCGStab:  Solving for e, Initial residual = 0.0117325, Final residual = 9.25783e-05, No Iterations 1
DICPCG:  Solving for p_rgh, Initial residual = 0.216994, Final residual = 0.00208067, No Iterations 203
time step continuity errors : sum local = 45.7715, global = -0.101481, cumulative = -21.326
DILUPBiCGStab:  Solving for epsilon, Initial residual = 0, Final residual = 0, No Iterations 0
DILUPBiCGStab:  Solving for k, Initial residual = 0.0139762, Final residual = 0.000963492, No Iterations 1
ExecutionTime = 1.79 s  ClockTime = 2 s

Time = 29

DILUPBiCGStab:  Solving for Ux, Initial residual = 0.0147277, Final residual = 0.00129407, No Iterations 1
DILUPBiCGStab:  Solving for Uy, Initial residual = 0.0300861, Final residual = 0.00281009, No Iterations 1
DILUPBiCGStab:  Solving for Uz, Initial residual = 0.0510194, Final residual = 0.00231142, No Iterations 1
DILUPBiCGStab:  Solving for e, Initial residual = 0.0115089, Final residual = 9.44392e-05, No Iterations 1
DICPCG:  Solving for p_rgh, Initial residual = 0.191152, Final residual = 0.00142642, No Iterations 206
time step continuity errors : sum local = 33.4179, global = -0.110309, cumulative = -21.4363
DILUPBiCGStab:  Solving for epsilon, Initial residual = 0, Final residual = 0, No Iterations 0
DILUPBiCGStab:  Solving for k, Initial residual = 0.0136859, Final residual = 0.00100292, No Iterations 1
ExecutionTime = 1.85 s  ClockTime = 2 s

Time = 30

DILUPBiCGStab:  Solving for Ux, Initial residual = 0.0144499, Final residual = 0.00118354, No Iterations 1
DILUPBiCGStab:  Solving for Uy, Initial residual = 0.0302687, Final residual = 0.00290682, No Iterations 1
DILUPBiCGStab:  Solving for Uz, Initial residual = 0.050989, Final residual = 0.00334958, No Iterations 1
DILUPBiCGStab:  Solving for e, Initial residual = 0.0111748, Final residual = 9.8629e-05, No Iterations 1
DICPCG:  Solving for p_rgh, Initial residual = 0.179175, Final residual = 0.00175221, No Iterations 76
time step continuity errors : sum local = 42.9084, global = 1.47052, cumulative = -19.9658
DILUPBiCGStab:  Solving for epsilon, Initial residual = 0, Final residual = 0, No Iterations 0
DILUPBiCGStab:  Solving for k, Initial residual = 0.0133473, Final residual = 0.00102511, No Iterations 1
ExecutionTime = 1.88 s  ClockTime = 2 s

Time = 31

DILUPBiCGStab:  Solving for Ux, Initial residual = 0.0141348, Final residual = 0.0011299, No Iterations 1
DILUPBiCGStab:  Solving for Uy, Initial residual = 0.0294584, Final residual = 0.00040459, No Iterations 1
DILUPBiCGStab:  Solving for Uz, Initial residual = 0.0487121, Final residual = 0.00227103, No Iterations 1
DILUPBiCGStab:  Solving for e, Initial residual = 0.0107719, Final residual = 0.000105687, No Iterations 1
DICPCG:  Solving for p_rgh, Initial residual = 0.167239, Final residual = 0.00153309, No Iterations 168
time step continuity errors : sum local = 38.3116, global = -0.947214, cumulative = -20.913
DILUPBiCGStab:  Solving for epsilon, Initial residual = 0, Final residual = 0, No Iterations 0
DILUPBiCGStab:  Solving for k, Initial residual = 0.0129548, Final residual = 0.00105246, No Iterations 1
ExecutionTime = 1.94 s  ClockTime = 2 s

Time = 32

DILUPBiCGStab:  Solving for Ux, Initial residual = 0.0140114, Final residual = 0.00113971, No Iterations 1
DILUPBiCGStab:  Solving for Uy, Initial residual = 0.0286854, Final residual = 0.000430977, No Iterations 1
DILUPBiCGStab:  Solving for Uz, Initial residual = 0.0464574, Final residual = 0.00207808, No Iterations 1
DILUPBiCGStab:  Solving for e, Initial residual = 0.0103886, Final residual = 0.000117712, No Iterations 1
DICPCG:  Solving for p_rgh, Initial residual = 0.148891, Final residual = 0.00116912, No Iterations 204
time step continuity errors : sum local = 30.0259, global = -0.232806, cumulative = -21.1458
DILUPBiCGStab:  Solving for epsilon, Initial residual = 0, Final residual = 0, No Iterations 0
DILUPBiCGStab:  Solving for k, Initial residual = 0.0125236, Final residual = 0.00107213, No Iterations 1
ExecutionTime = 2 s  ClockTime = 2 s

Time = 33

DILUPBiCGStab:  Solving for Ux, Initial residual = 0.0138267, Final residual = 0.00114406, No Iterations 1
DILUPBiCGStab:  Solving for Uy, Initial residual = 0.0284615, Final residual = 0.00284222, No Iterations 1
DILUPBiCGStab:  Solving for Uz, Initial residual = 0.0443289, Final residual = 0.00191058, No Iterations 1
DILUPBiCGStab:  Solving for e, Initial residual = 0.0101338, Final residual = 0.000136691, No Iterations 1
DICPCG:  Solving for p_rgh, Initial residual = 0.143756, Final residual = 0.00134277, No Iterations 45
time step continuity errors : sum local = 33.8283, global = 0.123754, cumulative = -21.022
DILUPBiCGStab:  Solving for epsilon, Initial residual = 0, Final residual = 0, No Iterations 0
DILUPBiCGStab:  Solving for k, Initial residual = 0.0120612, Final residual = 0.00107686, No Iterations 1
ExecutionTime = 2.03 s  ClockTime = 2 s

Time = 34

DILUPBiCGStab:  Solving for Ux, Initial residual = 0.0136292, Final residual = 0.00105281, No Iterations 1
DILUPBiCGStab:  Solving for Uy, Initial residual = 0.02729, Final residual = 0.0024876, No Iterations 1
DILUPBiCGStab:  Solving for Uz, Initial residual = 0.0421994, Final residual = 0.00181422, No Iterations 1
DILUPBiCGStab:  Solving for e, Initial residual = 0.0100336, Final residual = 0.000136736, No Iterations 1
DICPCG:  Solving for p_rgh, Initial residual = 0.146305, Final residual = 0.00122042, No Iterations 205
time step continuity errors : sum local = 28.7821, global = -0.00368002, cumulative = -21.0257
DILUPBiCGStab:  Solving for epsilon, Initial residual = 0, Final residual = 0, No Iterations 0
DILUPBiCGStab:  Solving for k, Initial residual = 0.0115647, Final residual = 0.00106843, No Iterations 1
ExecutionTime = 2.09 s  ClockTime = 2 s

Time = 35

DILUPBiCGStab:  Solving for Ux, Initial residual = 0.0132672, Final residual = 0.000928993, No Iterations 1
DILUPBiCGStab:  Solving for Uy, Initial residual = 0.0247926, Final residual = 0.00207159, No Iterations 1
DILUPBiCGStab:  Solving for Uz, Initial residual = 0.0398407, Final residual = 0.00167602, No Iterations 1
DILUPBiCGStab:  Solving for e, Initial residual = 0.00982494, Final residual = 0.000137581, No Iterations 1
DICPCG:  Solving for p_rgh, Initial residual = 0.145082, Final residual = 0.00137623, No Iterations 180
time step continuity errors : sum local = 31.1648, global = 0.750775, cumulative = -20.2749
DILUPBiCGStab:  Solving for epsilon, Initial residual = 0, Final residual = 0, No Iterations 0
DILUPBiCGStab:  Solving for k, Initial residual = 0.0110721, Final residual = 0.00105554, No Iterations 1
ExecutionTime = 2.14 s  ClockTime = 2 s

Time = 36

DILUPBiCGStab:  Solving for Ux, Initial residual = 0.0129814, Final residual = 0.000845403, No Iterations 1
DILUPBiCGStab:  Solving for Uy, Initial residual = 0.0223708, Final residual = 0.00173294, No Iterations 1
DILUPBiCGStab:  Solving for Uz, Initial residual = 0.0383928, Final residual = 0.00157247, No Iterations 1
DILUPBiCGStab:  Solving for e, Initial residual = 0.00958624, Final residual = 0.000138756, No Iterations 1
DICPCG:  Solving for p_rgh, Initial residual = 0.136692, Final residual = 0.00134977, No Iterations 49
time step continuity errors : sum local = 30.8339, global = -4.76863, cumulative = -25.0436
DILUPBiCGStab:  Solving for epsilon, Initial residual = 0, Final residual = 0, No Iterations 0
DILUPBiCGStab:  Solving for k, Initial residual = 0.0105955, Final residual = 0.00103725, No Iterations 1
ExecutionTime = 2.17 s  ClockTime = 2 s

Time = 37

DILUPBiCGStab:  Solving for Ux, Initial residual = 0.012688, Final residual = 0.000804333, No Iterations 1
DILUPBiCGStab:  Solving for Uy, Initial residual = 0.020921, Final residual = 0.00171313, No Iterations 1
DILUPBiCGStab:  Solving for Uz, Initial residual = 0.036608, Final residual = 0.00148835, No Iterations 1
DILUPBiCGStab:  Solving for e, Initial residual = 0.00935992, Final residual = 0.000137221, No Iterations 1
DICPCG:  Solving for p_rgh, Initial residual = 0.132109, Final residual = 0.00128933, No Iterations 70
time step continuity errors : sum local = 29.4448, global = -2.23704, cumulative = -27.2806
DILUPBiCGStab:  Solving for epsilon, Initial residual = 0, Final residual = 0, No Iterations 0
DILUPBiCGStab:  Solving for k, Initial residual = 0.0101204, Final residual = 0.000141894, No Iterations 1
ExecutionTime = 2.21 s  ClockTime = 2 s

Time = 38

DILUPBiCGStab:  Solving for Ux, Initial residual = 0.0124199, Final residual = 0.000792236, No Iterations 1
DILUPBiCGStab:  Solving for Uy, Initial residual = 0.0203522, Final residual = 0.00181548, No Iterations 1
DILUPBiCGStab:  Solving for Uz, Initial residual = 0.0354908, Final residual = 0.00139794, No Iterations 1
DILUPBiCGStab:  Solving for e, Initial residual = 0.00915479, Final residual = 0.000131513, No Iterations 1
DICPCG:  Solving for p_rgh, Initial residual = 0.127536, Final residual = 0.0012614, No Iterations 73
time step continuity errors : sum local = 29.1246, global = -5.12114, cumulative = -32.4018
DILUPBiCGStab:  Solving for epsilon, Initial residual = 0, Final residual = 0, No Iterations 0
DILUPBiCGStab:  Solving for k, Initial residual = 0.00962409, Final residual = 0.000135149, No Iterations 1
ExecutionTime = 2.24 s  ClockTime = 2 s

Time = 39

DILUPBiCGStab:  Solving for Ux, Initial residual = 0.0121202, Final residual = 0.000754135, No Iterations 1
DILUPBiCGStab:  Solving for Uy, Initial residual = 0.0202595, Final residual = 0.00190857, No Iterations 1
DILUPBiCGStab:  Solving for Uz, Initial residual = 0.0340437, Final residual = 0.00133447, No Iterations 1
DILUPBiCGStab:  Solving for e, Initial residual = 0.00901522, Final residual = 0.000122524, No Iterations 1
DICPCG:  Solving for p_rgh, Initial residual = 0.137141, Final residual = 0.00123131, No Iterations 208
time step continuity errors : sum local = 29.386, global = -0.156578, cumulative = -32.5583
DILUPBiCGStab:  Solving for epsilon, Initial residual = 0, Final residual = 0, No Iterations 0
DILUPBiCGStab:  Solving for k, Initial residual = 0.00917416, Final residual = 0.000129715, No Iterations 1
ExecutionTime = 2.3 s  ClockTime = 2 s

Time = 40

DILUPBiCGStab:  Solving for Ux, Initial residual = 0.0118221, Final residual = 0.000715852, No Iterations 1
DILUPBiCGStab:  Solving for Uy, Initial residual = 0.0199483, Final residual = 0.00190659, No Iterations 1
DILUPBiCGStab:  Solving for Uz, Initial residual = 0.0337813, Final residual = 0.00131794, No Iterations 1
DILUPBiCGStab:  Solving for e, Initial residual = 0.00887348, Final residual = 0.000110568, No Iterations 1
DICPCG:  Solving for p_rgh, Initial residual = 0.113935, Final residual = 0.00112731, No Iterations 86
time step continuity errors : sum local = 27.7367, global = -3.89709, cumulative = -36.4554
DILUPBiCGStab:  Solving for epsilon, Initial residual = 0, Final residual = 0, No Iterations 0
DILUPBiCGStab:  Solving for k, Initial residual = 0.00881804, Final residual = 0.000125996, No Iterations 1
ExecutionTime = 2.34 s  ClockTime = 3 s

Time = 41

DILUPBiCGStab:  Solving for Ux, Initial residual = 0.0117154, Final residual = 0.00070847, No Iterations 1
DILUPBiCGStab:  Solving for Uy, Initial residual = 0.019629, Final residual = 0.00186143, No Iterations 1
DILUPBiCGStab:  Solving for Uz, Initial residual = 0.0318671, Final residual = 0.00131698, No Iterations 1
DILUPBiCGStab:  Solving for e, Initial residual = 0.00872242, Final residual = 9.99745e-05, No Iterations 1
DICPCG:  Solving for p_rgh, Initial residual = 0.116617, Final residual = 0.00115029, No Iterations 50
time step continuity errors : sum local = 29.8865, global = -0.58362, cumulative = -37.039
DILUPBiCGStab:  Solving for epsilon, Initial residual = 0, Final residual = 0, No Iterations 0
DILUPBiCGStab:  Solving for k, Initial residual = 0.00855399, Final residual = 0.000125101, No Iterations 1
ExecutionTime = 2.37 s  ClockTime = 3 s

Time = 42

DILUPBiCGStab:  Solving for Ux, Initial residual = 0.0117781, Final residual = 0.000740006, No Iterations 1
DILUPBiCGStab:  Solving for Uy, Initial residual = 0.0192702, Final residual = 0.00179373, No Iterations 1
DILUPBiCGStab:  Solving for Uz, Initial residual = 0.0306901, Final residual = 0.00138164, No Iterations 1
DILUPBiCGStab:  Solving for e, Initial residual = 0.00862667, Final residual = 8.69299e-05, No Iterations 1
DICPCG:  Solving for p_rgh, Initial residual = 0.117302, Final residual = 0.00109906, No Iterations 45
time step continuity errors : sum local = 29.1193, global = -1.66345, cumulative = -38.7025
DILUPBiCGStab:  Solving for epsilon, Initial residual = 0, Final residual = 0, No Iterations 0
DILUPBiCGStab:  Solving for k, Initial residual = 0.00833343, Final residual = 0.000124922, No Iterations 1
ExecutionTime = 2.4 s  ClockTime = 3 s

Time = 43

DILUPBiCGStab:  Solving for Ux, Initial residual = 0.0117686, Final residual = 0.000739338, No Iterations 1
DILUPBiCGStab:  Solving for Uy, Initial residual = 0.01872, Final residual = 0.00173051, No Iterations 1
DILUPBiCGStab:  Solving for Uz, Initial residual = 0.0289251, Final residual = 0.00150952, No Iterations 1
DILUPBiCGStab:  Solving for e, Initial residual = 0.00844099, Final residual = 7.03325e-05, No Iterations 1
DICPCG:  Solving for p_rgh, Initial residual = 0.12098, Final residual = 0.00105708, No Iterations 46
time step continuity errors : sum local = 27.1037, global = -3.03388, cumulative = -41.7364
DILUPBiCGStab:  Solving for epsilon, Initial residual = 0, Final residual = 0, No Iterations 0
DILUPBiCGStab:  Solving for k, Initial residual = 0.00815415, Final residual = 0.000124573, No Iterations 1
ExecutionTime = 2.44 s  ClockTime = 3 s

Time = 44

DILUPBiCGStab:  Solving for Ux, Initial residual = 0.0118444, Final residual = 0.000739946, No Iterations 1
DILUPBiCGStab:  Solving for Uy, Initial residual = 0.0187961, Final residual = 0.00162204, No Iterations 1
DILUPBiCGStab:  Solving for Uz, Initial residual = 0.0276512, Final residual = 0.00136397, No Iterations 1
DILUPBiCGStab:  Solving for e, Initial residual = 0.00823227, Final residual = 5.90648e-05, No Iterations 1
DICPCG:  Solving for p_rgh, Initial residual = 0.110524, Final residual = 0.00108356, No Iterations 48
time step continuity errors : sum local = 27.3198, global = -6.62475, cumulative = -48.3611
DILUPBiCGStab:  Solving for epsilon, Initial residual = 0, Final residual = 0, No Iterations 0
DILUPBiCGStab:  Solving for k, Initial residual = 0.00803986, Final residual = 0.000126088, No Iterations 1
ExecutionTime = 2.47 s  ClockTime = 3 s

Time = 45

DILUPBiCGStab:  Solving for Ux, Initial residual = 0.0117947, Final residual = 0.000742, No Iterations 1
DILUPBiCGStab:  Solving for Uy, Initial residual = 0.0189935, Final residual = 0.00164749, No Iterations 1
DILUPBiCGStab:  Solving for Uz, Initial residual = 0.0266071, Final residual = 0.00129811, No Iterations 1
DILUPBiCGStab:  Solving for e, Initial residual = 0.00809939, Final residual = 4.72598e-05, No Iterations 1
DICPCG:  Solving for p_rgh, Initial residual = 0.106629, Final residual = 0.00100064, No Iterations 200
time step continuity errors : sum local = 24.8495, global = -0.167787, cumulative = -48.5289
DILUPBiCGStab:  Solving for epsilon, Initial residual = 0, Final residual = 0, No Iterations 0
DILUPBiCGStab:  Solving for k, Initial residual = 0.00789936, Final residual = 0.00012724, No Iterations 1
ExecutionTime = 2.53 s  ClockTime = 3 s

Time = 46

DILUPBiCGStab:  Solving for Ux, Initial residual = 0.0115894, Final residual = 0.000730755, No Iterations 1
DILUPBiCGStab:  Solving for Uy, Initial residual = 0.0191696, Final residual = 0.00169572, No Iterations 1
DILUPBiCGStab:  Solving for Uz, Initial residual = 0.026041, Final residual = 0.00123354, No Iterations 1
DILUPBiCGStab:  Solving for e, Initial residual = 0.00796129, Final residual = 4.15402e-05, No Iterations 1
DICPCG:  Solving for p_rgh, Initial residual = 0.101407, Final residual = 0.000929938, No Iterations 45
time step continuity errors : sum local = 23.9498, global = -2.35134, cumulative = -50.8802
DILUPBiCGStab:  Solving for epsilon, Initial residual = 0, Final residual = 0, No Iterations 0
DILUPBiCGStab:  Solving for k, Initial residual = 0.00787855, Final residual = 0.000131272, No Iterations 1
ExecutionTime = 2.56 s  ClockTime = 3 s

Time = 47

DILUPBiCGStab:  Solving for Ux, Initial residual = 0.0114545, Final residual = 0.00073091, No Iterations 1
DILUPBiCGStab:  Solving for Uy, Initial residual = 0.0192468, Final residual = 0.00176487, No Iterations 1
DILUPBiCGStab:  Solving for Uz, Initial residual = 0.0259702, Final residual = 0.00122222, No Iterations 1
DILUPBiCGStab:  Solving for e, Initial residual = 0.00789531, Final residual = 4.74543e-05, No Iterations 1
DICPCG:  Solving for p_rgh, Initial residual = 0.0972159, Final residual = 0.000908122, No Iterations 63
time step continuity errors : sum local = 23.3593, global = -0.94055, cumulative = -51.8208
DILUPBiCGStab:  Solving for epsilon, Initial residual = 0, Final residual = 0, No Iterations 0
DILUPBiCGStab:  Solving for k, Initial residual = 0.00786957, Final residual = 0.000134097, No Iterations 1
ExecutionTime = 2.6 s  ClockTime = 3 s

Time = 48

DILUPBiCGStab:  Solving for Ux, Initial residual = 0.0112221, Final residual = 0.000725476, No Iterations 1
DILUPBiCGStab:  Solving for Uy, Initial residual = 0.019346, Final residual = 0.00182477, No Iterations 1
DILUPBiCGStab:  Solving for Uz, Initial residual = 0.0258248, Final residual = 0.00126836, No Iterations 1
DILUPBiCGStab:  Solving for e, Initial residual = 0.00791445, Final residual = 6.5556e-05, No Iterations 1
DICPCG:  Solving for p_rgh, Initial residual = 0.0930286, Final residual = 0.000867711, No Iterations 65
time step continuity errors : sum local = 22.4179, global = -0.737861, cumulative = -52.5587
DILUPBiCGStab:  Solving for epsilon, Initial residual = 0, Final residual = 0, No Iterations 0
DILUPBiCGStab:  Solving for k, Initial residual = 0.00792832, Final residual = 0.000137865, No Iterations 1
ExecutionTime = 2.63 s  ClockTime = 3 s

Time = 49

DILUPBiCGStab:  Solving for Ux, Initial residual = 0.0109885, Final residual = 0.000720708, No Iterations 1
DILUPBiCGStab:  Solving for Uy, Initial residual = 0.0195179, Final residual = 0.00186078, No Iterations 1
DILUPBiCGStab:  Solving for Uz, Initial residual = 0.0255907, Final residual = 0.00134054, No Iterations 1
DILUPBiCGStab:  Solving for e, Initial residual = 0.00796412, Final residual = 8.89047e-05, No Iterations 1
DICPCG:  Solving for p_rgh, Initial residual = 0.0883615, Final residual = 0.000865696, No Iterations 46
time step continuity errors : sum local = 22.489, global = -1.15351, cumulative = -53.7122
DILUPBiCGStab:  Solving for epsilon, Initial residual = 0, Final residual = 0, No Iterations 0
DILUPBiCGStab:  Solving for k, Initial residual = 0.00803217, Final residual = 0.000141643, No Iterations 1
ExecutionTime = 2.66 s  ClockTime = 3 s

Time = 50

DILUPBiCGStab:  Solving for Ux, Initial residual = 0.0107208, Final residual = 0.000722484, No Iterations 1
DILUPBiCGStab:  Solving for Uy, Initial residual = 0.0198405, Final residual = 0.00188557, No Iterations 1
DILUPBiCGStab:  Solving for Uz, Initial residual = 0.0255301, Final residual = 0.00137007, No Iterations 1
DILUPBiCGStab:  Solving for e, Initial residual = 0.00802244, Final residual = 0.000117998, No Iterations 1
DICPCG:  Solving for p_rgh, Initial residual = 0.086489, Final residual = 0.000787269, No Iterations 71
time step continuity errors : sum local = 20.6458, global = -2.88243, cumulative = -56.5946
DILUPBiCGStab:  Solving for epsilon, Initial residual = 0, Final residual = 0, No Iterations 0
DILUPBiCGStab:  Solving for k, Initial residual = 0.00815691, Final residual = 0.000145007, No Iterations 1
ExecutionTime = 2.7 s  ClockTime = 3 s

Time = 51

DILUPBiCGStab:  Solving for Ux, Initial residual = 0.0104361, Final residual = 0.000720022, No Iterations 1
DILUPBiCGStab:  Solving for Uy, Initial residual = 0.0201683, Final residual = 0.00190115, No Iterations 1
DILUPBiCGStab:  Solving for Uz, Initial residual = 0.0253873, Final residual = 0.00139794, No Iterations 1
DILUPBiCGStab:  Solving for e, Initial residual = 0.00809125, Final residual = 0.000156443, No Iterations 1
DICPCG:  Solving for p_rgh, Initial residual = 0.0948611, Final residual = 0.000876074, No Iterations 63
time step continuity errors : sum local = 23.2735, global = -3.87076, cumulative = -60.4654
DILUPBiCGStab:  Solving for epsilon, Initial residual = 0, Final residual = 0, No Iterations 0
DILUPBiCGStab:  Solving for k, Initial residual = 0.00832064, Final residual = 0.000149312, No Iterations 1
ExecutionTime = 2.73 s  ClockTime = 3 s

Time = 52

DILUPBiCGStab:  Solving for Ux, Initial residual = 0.0102004, Final residual = 0.000711927, No Iterations 1
DILUPBiCGStab:  Solving for Uy, Initial residual = 0.0202709, Final residual = 0.0018951, No Iterations 1
DILUPBiCGStab:  Solving for Uz, Initial residual = 0.0255331, Final residual = 0.0013939, No Iterations 1
DILUPBiCGStab:  Solving for e, Initial residual = 0.00814736, Final residual = 0.000186673, No Iterations 1
DICPCG:  Solving for p_rgh, Initial residual = 0.0918676, Final residual = 0.000911891, No Iterations 90
time step continuity errors : sum local = 24.1056, global = -4.54867, cumulative = -65.014
DILUPBiCGStab:  Solving for epsilon, Initial residual = 0, Final residual = 0, No Iterations 0
DILUPBiCGStab:  Solving for k, Initial residual = 0.00848681, Final residual = 0.000153156, No Iterations 1
ExecutionTime = 2.77 s  ClockTime = 3 s

Time = 53

DILUPBiCGStab:  Solving for Ux, Initial residual = 0.0100194, Final residual = 0.000698444, No Iterations 1
DILUPBiCGStab:  Solving for Uy, Initial residual = 0.0201388, Final residual = 0.00184036, No Iterations 1
DILUPBiCGStab:  Solving for Uz, Initial residual = 0.0257396, Final residual = 0.00137382, No Iterations 1
DILUPBiCGStab:  Solving for e, Initial residual = 0.00819511, Final residual = 0.000211184, No Iterations 1
DICPCG:  Solving for p_rgh, Initial residual = 0.0859568, Final residual = 0.000659147, No Iterations 203
time step continuity errors : sum local = 17.3454, global = -0.0250711, cumulative = -65.0391
DILUPBiCGStab:  Solving for epsilon, Initial residual = 0, Final residual = 0, No Iterations 0
DILUPBiCGStab:  Solving for k, Initial residual = 0.00863806, Final residual = 0.000155753, No Iterations 1
ExecutionTime = 2.83 s  ClockTime = 3 s

Time = 54

DILUPBiCGStab:  Solving for Ux, Initial residual = 0.00974074, Final residual = 0.000681547, No Iterations 1
DILUPBiCGStab:  Solving for Uy, Initial residual = 0.019907, Final residual = 0.0017683, No Iterations 1
DILUPBiCGStab:  Solving for Uz, Initial residual = 0.0261958, Final residual = 0.0014101, No Iterations 1
DILUPBiCGStab:  Solving for e, Initial residual = 0.00822944, Final residual = 0.000225832, No Iterations 1
DICPCG:  Solving for p_rgh, Initial residual = 0.0808453, Final residual = 0.000791323, No Iterations 64
time step continuity errors : sum local = 21.2348, global = 0.706378, cumulative = -64.3327
DILUPBiCGStab:  Solving for epsilon, Initial residual = 0, Final residual = 0, No Iterations 0
DILUPBiCGStab:  Solving for k, Initial residual = 0.00885149, Final residual = 0.000155988, No Iterations 1
ExecutionTime = 2.87 s  ClockTime = 3 s

Time = 55

DILUPBiCGStab:  Solving for Ux, Initial residual = 0.00961132, Final residual = 0.000674815, No Iterations 1
DILUPBiCGStab:  Solving for Uy, Initial residual = 0.0200063, Final residual = 0.00171739, No Iterations 1
DILUPBiCGStab:  Solving for Uz, Initial residual = 0.0260755, Final residual = 0.00142736, No Iterations 1
DILUPBiCGStab:  Solving for e, Initial residual = 0.00828919, Final residual = 0.000222449, No Iterations 1
DICPCG:  Solving for p_rgh, Initial residual = 0.0860176, Final residual = 0.00066817, No Iterations 205
time step continuity errors : sum local = 18.0031, global = -0.0519622, cumulative = -64.3847
DILUPBiCGStab:  Solving for epsilon, Initial residual = 0, Final residual = 0, No Iterations 0
DILUPBiCGStab:  Solving for k, Initial residual = 0.0091084, Final residual = 0.000166224, No Iterations 1
ExecutionTime = 2.93 s  ClockTime = 3 s

Time = 56

DILUPBiCGStab:  Solving for Ux, Initial residual = 0.00965612, Final residual = 0.000638087, No Iterations 1
DILUPBiCGStab:  Solving for Uy, Initial residual = 0.020385, Final residual = 0.00165654, No Iterations 1
DILUPBiCGStab:  Solving for Uz, Initial residual = 0.0263406, Final residual = 0.0013727, No Iterations 1
DILUPBiCGStab:  Solving for e, Initial residual = 0.00835056, Final residual = 0.000190361, No Iterations 1
DICPCG:  Solving for p_rgh, Initial residual = 0.0870375, Final residual = 0.000863211, No Iterations 81
time step continuity errors : sum local = 22.3516, global = 4.31508, cumulative = -60.0696
DILUPBiCGStab:  Solving for epsilon, Initial residual = 0, Final residual = 0, No Iterations 0
DILUPBiCGStab:  Solving for k, Initial residual = 0.00930418, Final residual = 0.000174007, No Iterations 1
ExecutionTime = 2.97 s  ClockTime = 3 s

Time = 57

DILUPBiCGStab:  Solving for Ux, Initial residual = 0.00964764, Final residual = 0.000630961, No Iterations 1
DILUPBiCGStab:  Solving for Uy, Initial residual = 0.0200706, Final residual = 0.00159591, No Iterations 1
DILUPBiCGStab:  Solving for Uz, Initial residual = 0.026896, Final residual = 0.00132405, No Iterations 1
DILUPBiCGStab:  Solving for e, Initial residual = 0.00836048, Final residual = 0.00015352, No Iterations 1
DICPCG:  Solving for p_rgh, Initial residual = 0.0826625, Final residual = 0.000780784, No Iterations 39
time step continuity errors : sum local = 19.9983, global = 1.94506, cumulative = -58.1246
DILUPBiCGStab:  Solving for epsilon, Initial residual = 0, Final residual = 0, No Iterations 0
DILUPBiCGStab:  Solving for k, Initial residual = 0.00950527, Final residual = 0.000180273, No Iterations 1
ExecutionTime = 3 s  ClockTime = 3 s

Time = 58

DILUPBiCGStab:  Solving for Ux, Initial residual = 0.00952185, Final residual = 0.000637242, No Iterations 1
DILUPBiCGStab:  Solving for Uy, Initial residual = 0.0185076, Final residual = 0.00151443, No Iterations 1
DILUPBiCGStab:  Solving for Uz, Initial residual = 0.0263569, Final residual = 0.00131491, No Iterations 1
DILUPBiCGStab:  Solving for e, Initial residual = 0.00834385, Final residual = 0.000138042, No Iterations 1
DICPCG:  Solving for p_rgh, Initial residual = 0.0803152, Final residual = 0.000786444, No Iterations 112
time step continuity errors : sum local = 20.0679, global = -0.052391, cumulative = -58.1769
DILUPBiCGStab:  Solving for epsilon, Initial residual = 0, Final residual = 0, No Iterations 0
DILUPBiCGStab:  Solving for k, Initial residual = 0.00967091, Final residual = 0.000185154, No Iterations 1
ExecutionTime = 3.04 s  ClockTime = 3 s

Time = 59

DILUPBiCGStab:  Solving for Ux, Initial residual = 0.00937221, Final residual = 0.000645487, No Iterations 1
DILUPBiCGStab:  Solving for Uy, Initial residual = 0.0169193, Final residual = 0.00145253, No Iterations 1
DILUPBiCGStab:  Solving for Uz, Initial residual = 0.0264789, Final residual = 0.0012691, No Iterations 1
DILUPBiCGStab:  Solving for e, Initial residual = 0.00829848, Final residual = 0.000133236, No Iterations 1
DICPCG:  Solving for p_rgh, Initial residual = 0.0772737, Final residual = 0.000758058, No Iterations 79
time step continuity errors : sum local = 19.3126, global = -3.12017, cumulative = -61.2971
DILUPBiCGStab:  Solving for epsilon, Initial residual = 0, Final residual = 0, No Iterations 0
DILUPBiCGStab:  Solving for k, Initial residual = 0.00980173, Final residual = 0.000188607, No Iterations 1
ExecutionTime = 3.07 s  ClockTime = 3 s

Time = 60

DILUPBiCGStab:  Solving for Ux, Initial residual = 0.00927695, Final residual = 0.000649203, No Iterations 1
DILUPBiCGStab:  Solving for Uy, Initial residual = 0.0160875, Final residual = 0.0014498, No Iterations 1
DILUPBiCGStab:  Solving for Uz, Initial residual = 0.0267096, Final residual = 0.00127798, No Iterations 1
DILUPBiCGStab:  Solving for e, Initial residual = 0.00823368, Final residual = 0.000131705, No Iterations 1
DICPCG:  Solving for p_rgh, Initial residual = 0.0750109, Final residual = 0.00068523, No Iterations 204
time step continuity errors : sum local = 17.4644, global = -0.0560441, cumulative = -61.3532
DILUPBiCGStab:  Solving for epsilon, Initial residual = 0, Final residual = 0, No Iterations 0
DILUPBiCGStab:  Solving for k, Initial residual = 0.00991889, Final residual = 0.000189651, No Iterations 1
ExecutionTime = 3.13 s  ClockTime = 3 s

Time = 61

DILUPBiCGStab:  Solving for Ux, Initial residual = 0.00911075, Final residual = 0.000647255, No Iterations 1
DILUPBiCGStab:  Solving for Uy, Initial residual = 0.0155773, Final residual = 0.00147194, No Iterations 1
DILUPBiCGStab:  Solving for Uz, Initial residual = 0.0275781, Final residual = 0.0013388, No Iterations 1
DILUPBiCGStab:  Solving for e, Initial residual = 0.00814165, Final residual = 0.000127496, No Iterations 1
DICPCG:  Solving for p_rgh, Initial residual = 0.0708504, Final residual = 0.000704458, No Iterations 134
time step continuity errors : sum local = 18.6316, global = -1.07384, cumulative = -62.427
DILUPBiCGStab:  Solving for epsilon, Initial residual = 0, Final residual = 0, No Iterations 0
DILUPBiCGStab:  Solving for k, Initial residual = 0.0100478, Final residual = 0.000192165, No Iterations 1
ExecutionTime = 3.18 s  ClockTime = 3 s

Time = 62

DILUPBiCGStab:  Solving for Ux, Initial residual = 0.00895285, Final residual = 0.000641384, No Iterations 1
DILUPBiCGStab:  Solving for Uy, Initial residual = 0.0153923, Final residual = 0.00150624, No Iterations 1
DILUPBiCGStab:  Solving for Uz, Initial residual = 0.0273934, Final residual = 0.00131066, No Iterations 1
DILUPBiCGStab:  Solving for e, Initial residual = 0.0080199, Final residual = 0.00011911, No Iterations 1
DICPCG:  Solving for p_rgh, Initial residual = 0.0633693, Final residual = 0.000624441, No Iterations 82
time step continuity errors : sum local = 18.849, global = 1.96845, cumulative = -60.4585
DILUPBiCGStab:  Solving for epsilon, Initial residual = 0, Final residual = 0, No Iterations 0
DILUPBiCGStab:  Solving for k, Initial residual = 0.0101079, Final residual = 0.000191755, No Iterations 1
ExecutionTime = 3.22 s  ClockTime = 3 s

Time = 63

DILUPBiCGStab:  Solving for Ux, Initial residual = 0.0087178, Final residual = 0.000614357, No Iterations 1
DILUPBiCGStab:  Solving for Uy, Initial residual = 0.014832, Final residual = 0.00020707, No Iterations 1
DILUPBiCGStab:  Solving for Uz, Initial residual = 0.0282636, Final residual = 0.0012817, No Iterations 1
DILUPBiCGStab:  Solving for e, Initial residual = 0.0078609, Final residual = 0.00010576, No Iterations 1
DICPCG:  Solving for p_rgh, Initial residual = 0.0697196, Final residual = 0.000588894, No Iterations 203
time step continuity errors : sum local = 15.4308, global = 0.0120268, cumulative = -60.4465
DILUPBiCGStab:  Solving for epsilon, Initial residual = 0, Final residual = 0, No Iterations 0
DILUPBiCGStab:  Solving for k, Initial residual = 0.01012, Final residual = 0.00019541, No Iterations 1
ExecutionTime = 3.28 s  ClockTime = 3 s

Time = 64

DILUPBiCGStab:  Solving for Ux, Initial residual = 0.00842503, Final residual = 0.000581741, No Iterations 1
DILUPBiCGStab:  Solving for Uy, Initial residual = 0.0144215, Final residual = 0.00142091, No Iterations 1
DILUPBiCGStab:  Solving for Uz, Initial residual = 0.0279135, Final residual = 0.0011895, No Iterations 1
DILUPBiCGStab:  Solving for e, Initial residual = 0.00768501, Final residual = 9.27439e-05, No Iterations 1
DICPCG:  Solving for p_rgh, Initial residual = 0.0669769, Final residual = 0.000650346, No Iterations 56
time step continuity errors : sum local = 16.5854, global = 0.568489, cumulative = -59.878
DILUPBiCGStab:  Solving for epsilon, Initial residual = 0, Final residual = 0, No Iterations 0
DILUPBiCGStab:  Solving for k, Initial residual = 0.0100835, Final residual = 0.000195764, No Iterations 1
ExecutionTime = 3.31 s  ClockTime = 4 s

Time = 65

DILUPBiCGStab:  Solving for Ux, Initial residual = 0.00814108, Final residual = 0.000554765, No Iterations 1
DILUPBiCGStab:  Solving for Uy, Initial residual = 0.0142212, Final residual = 0.00142027, No Iterations 1
DILUPBiCGStab:  Solving for Uz, Initial residual = 0.0280707, Final residual = 0.00117976, No Iterations 1
DILUPBiCGStab:  Solving for e, Initial residual = 0.00751645, Final residual = 8.07452e-05, No Iterations 1
DICPCG:  Solving for p_rgh, Initial residual = 0.0651453, Final residual = 0.000627715, No Iterations 144
time step continuity errors : sum local = 16.3346, global = -1.8414, cumulative = -61.7194
DILUPBiCGStab:  Solving for epsilon, Initial residual = 0, Final residual = 0, No Iterations 0
DILUPBiCGStab:  Solving for k, Initial residual = 0.0100835, Final residual = 0.000195952, No Iterations 1
ExecutionTime = 3.36 s  ClockTime = 4 s

Time = 66

DILUPBiCGStab:  Solving for Ux, Initial residual = 0.00792877, Final residual = 0.000533487, No Iterations 1
DILUPBiCGStab:  Solving for Uy, Initial residual = 0.0142331, Final residual = 0.000210055, No Iterations 1
DILUPBiCGStab:  Solving for Uz, Initial residual = 0.0278296, Final residual = 0.00112046, No Iterations 1
DILUPBiCGStab:  Solving for e, Initial residual = 0.00736446, Final residual = 6.96584e-05, No Iterations 1
DICPCG:  Solving for p_rgh, Initial residual = 0.0627015, Final residual = 0.000564975, No Iterations 201
time step continuity errors : sum local = 15.4745, global = 0.0291871, cumulative = -61.6902
DILUPBiCGStab:  Solving for epsilon, Initial residual = 0, Final residual = 0, No Iterations 0
DILUPBiCGStab:  Solving for k, Initial residual = 0.0100504, Final residual = 0.00019615, No Iterations 1
ExecutionTime = 3.42 s  ClockTime = 4 s

Time = 67

DILUPBiCGStab:  Solving for Ux, Initial residual = 0.00763418, Final residual = 0.000512027, No Iterations 1
DILUPBiCGStab:  Solving for Uy, Initial residual = 0.013857, Final residual = 0.00137219, No Iterations 1
DILUPBiCGStab:  Solving for Uz, Initial residual = 0.0279514, Final residual = 0.00108971, No Iterations 1
DILUPBiCGStab:  Solving for e, Initial residual = 0.00722455, Final residual = 5.92184e-05, No Iterations 1
DICPCG:  Solving for p_rgh, Initial residual = 0.0593317, Final residual = 0.000523102, No Iterations 180
time step continuity errors : sum local = 14.8123, global = 0.381307, cumulative = -61.3089
DILUPBiCGStab:  Solving for epsilon, Initial residual = 0, Final residual = 0, No Iterations 0
DILUPBiCGStab:  Solving for k, Initial residual = 0.0100047, Final residual = 0.000196238, No Iterations 1
ExecutionTime = 3.48 s  ClockTime = 4 s

Time = 68

DILUPBiCGStab:  Solving for Ux, Initial residual = 0.00736374, Final residual = 0.000498017, No Iterations 1
DILUPBiCGStab:  Solving for Uy, Initial residual = 0.0135493, Final residual = 0.000206256, No Iterations 1
DILUPBiCGStab:  Solving for Uz, Initial residual = 0.0280116, Final residual = 0.00110101, No Iterations 1
DILUPBiCGStab:  Solving for e, Initial residual = 0.00709525, Final residual = 4.99416e-05, No Iterations 1
DICPCG:  Solving for p_rgh, Initial residual = 0.0592741, Final residual = 0.0005764, No Iterations 36
time step continuity errors : sum local = 16.3786, global = -1.47143, cumulative = -62.7804
DILUPBiCGStab:  Solving for epsilon, Initial residual = 0, Final residual = 0, No Iterations 0
DILUPBiCGStab:  Solving for k, Initial residual = 0.00993157, Final residual = 0.000197265, No Iterations 1
ExecutionTime = 3.51 s  ClockTime = 4 s

Time = 69

DILUPBiCGStab:  Solving for Ux, Initial residual = 0.00709183, Final residual = 0.00048302, No Iterations 1
DILUPBiCGStab:  Solving for Uy, Initial residual = 0.0130794, Final residual = 0.000201355, No Iterations 1
DILUPBiCGStab:  Solving for Uz, Initial residual = 0.0270788, Final residual = 0.00113381, No Iterations 1
DILUPBiCGStab:  Solving for e, Initial residual = 0.00698354, Final residual = 4.19333e-05, No Iterations 1
DICPCG:  Solving for p_rgh, Initial residual = 0.0611621, Final residual = 0.000606198, No Iterations 64
time step continuity errors : sum local = 16.4444, global = -1.83761, cumulative = -64.618
DILUPBiCGStab:  Solving for epsilon, Initial residual = 0, Final residual = 0, No Iterations 0
DILUPBiCGStab:  Solving for k, Initial residual = 0.00982796, Final residual = 0.000197871, No Iterations 1
ExecutionTime = 3.54 s  ClockTime = 4 s

Time = 70

DILUPBiCGStab:  Solving for Ux, Initial residual = 0.00686577, Final residual = 0.000471454, No Iterations 1
DILUPBiCGStab:  Solving for Uy, Initial residual = 0.0126564, Final residual = 0.000197634, No Iterations 1
DILUPBiCGStab:  Solving for Uz, Initial residual = 0.0271257, Final residual = 0.0011109, No Iterations 1
DILUPBiCGStab:  Solving for e, Initial residual = 0.0068868, Final residual = 3.51064e-05, No Iterations 1
DICPCG:  Solving for p_rgh, Initial residual = 0.0602128, Final residual = 0.000518854, No Iterations 192
time step continuity errors : sum local = 13.9333, global = -0.164954, cumulative = -64.7829
DILUPBiCGStab:  Solving for epsilon, Initial residual = 0, Final residual = 0, No Iterations 0
DILUPBiCGStab:  Solving for k, Initial residual = 0.00971295, Final residual = 0.000198385, No Iterations 1
ExecutionTime = 3.61 s  ClockTime = 4 s

Time = 71

DILUPBiCGStab:  Solving for Ux, Initial residual = 0.00668008, Final residual = 0.000465421, No Iterations 1
DILUPBiCGStab:  Solving for Uy, Initial residual = 0.012274, Final residual = 0.000195589, No Iterations 1
DILUPBiCGStab:  Solving for Uz, Initial residual = 0.0271557, Final residual = 0.0011122, No Iterations 1
DILUPBiCGStab:  Solving for e, Initial residual = 0.00679457, Final residual = 2.91927e-05, No Iterations 1
DICPCG:  Solving for p_rgh, Initial residual = 0.0581948, Final residual = 0.000455814, No Iterations 204
time step continuity errors : sum local = 12.4272, global = 0.0244819, cumulative = -64.7584
DILUPBiCGStab:  Solving for epsilon, Initial residual = 0, Final residual = 0, No Iterations 0
DILUPBiCGStab:  Solving for k, Initial residual = 0.00962323, Final residual = 0.000199015, No Iterations 1
ExecutionTime = 3.67 s  ClockTime = 4 s

Time = 72

DILUPBiCGStab:  Solving for Ux, Initial residual = 0.00652305, Final residual = 0.000461977, No Iterations 1
DILUPBiCGStab:  Solving for Uy, Initial residual = 0.0121335, Final residual = 0.000195661, No Iterations 1
DILUPBiCGStab:  Solving for Uz, Initial residual = 0.0263932, Final residual = 0.0010659, No Iterations 1
DILUPBiCGStab:  Solving for e, Initial residual = 0.00671646, Final residual = 2.41648e-05, No Iterations 1
DICPCG:  Solving for p_rgh, Initial residual = 0.0578382, Final residual = 0.000510566, No Iterations 203
time step continuity errors : sum local = 14.1055, global = -0.0455977, cumulative = -64.804
DILUPBiCGStab:  Solving for epsilon, Initial residual = 0, Final residual = 0, No Iterations 0
DILUPBiCGStab:  Solving for k, Initial residual = 0.00955667, Final residual = 0.000199034, No Iterations 1
ExecutionTime = 3.73 s  ClockTime = 4 s

Time = 73

DILUPBiCGStab:  Solving for Ux, Initial residual = 0.00637906, Final residual = 0.000458059, No Iterations 1
DILUPBiCGStab:  Solving for Uy, Initial residual = 0.0120762, Final residual = 0.000196619, No Iterations 1
DILUPBiCGStab:  Solving for Uz, Initial residual = 0.0258852, Final residual = 0.00108772, No Iterations 1
DILUPBiCGStab:  Solving for e, Initial residual = 0.00664825, Final residual = 2.00396e-05, No Iterations 1
DICPCG:  Solving for p_rgh, Initial residual = 0.0577427, Final residual = 0.000499994, No Iterations 59
time step continuity errors : sum local = 13.9103, global = -1.54923, cumulative = -66.3533
DILUPBiCGStab:  Solving for epsilon, Initial residual = 0, Final residual = 0, No Iterations 0
DILUPBiCGStab:  Solving for k, Initial residual = 0.00951315, Final residual = 0.000199236, No Iterations 1
ExecutionTime = 3.76 s  ClockTime = 4 s

Time = 74

DILUPBiCGStab:  Solving for Ux, Initial residual = 0.00621386, Final residual = 0.000450573, No Iterations 1
DILUPBiCGStab:  Solving for Uy, Initial residual = 0.0119371, Final residual = 0.000197135, No Iterations 1
DILUPBiCGStab:  Solving for Uz, Initial residual = 0.0258667, Final residual = 0.00120837, No Iterations 1
DILUPBiCGStab:  Solving for e, Initial residual = 0.0065849, Final residual = 1.72408e-05, No Iterations 1
DICPCG:  Solving for p_rgh, Initial residual = 0.0575901, Final residual = 0.000517727, No Iterations 205
time step continuity errors : sum local = 14.3933, global = 0.014854, cumulative = -66.3384
DILUPBiCGStab:  Solving for epsilon, Initial residual = 0, Final residual = 0, No Iterations 0
DILUPBiCGStab:  Solving for k, Initial residual = 0.00947146, Final residual = 0.000199894, No Iterations 1
ExecutionTime = 3.82 s  ClockTime = 4 s

Time = 75

DILUPBiCGStab:  Solving for Ux, Initial residual = 0.00608045, Final residual = 0.00044585, No Iterations 1
DILUPBiCGStab:  Solving for Uy, Initial residual = 0.0116389, Final residual = 0.000195423, No Iterations 1
DILUPBiCGStab:  Solving for Uz, Initial residual = 0.0264648, Final residual = 0.00126841, No Iterations 1
DILUPBiCGStab:  Solving for e, Initial residual = 0.00649942, Final residual = 1.57232e-05, No Iterations 1
DICPCG:  Solving for p_rgh, Initial residual = 0.0564629, Final residual = 0.000411287, No Iterations 207
time step continuity errors : sum local = 11.5876, global = 0.00339808, cumulative = -66.335
DILUPBiCGStab:  Solving for epsilon, Initial residual = 0, Final residual = 0, No Iterations 0
DILUPBiCGStab:  Solving for k, Initial residual = 0.00945179, Final residual = 0.000200921, No Iterations 1
ExecutionTime = 3.88 s  ClockTime = 4 s

Time = 76

DILUPBiCGStab:  Solving for Ux, Initial residual = 0.00595757, Final residual = 0.000441044, No Iterations 1
DILUPBiCGStab:  Solving for Uy, Initial residual = 0.0113151, Final residual = 0.000192351, No Iterations 1
DILUPBiCGStab:  Solving for Uz, Initial residual = 0.0276901, Final residual = 0.0013068, No Iterations 1
DILUPBiCGStab:  Solving for e, Initial residual = 0.00639147, Final residual = 1.44986e-05, No Iterations 1
DICPCG:  Solving for p_rgh, Initial residual = 0.0550161, Final residual = 0.000511607, No Iterations 206
time step continuity errors : sum local = 14.5805, global = 0.0125758, cumulative = -66.3224
DILUPBiCGStab:  Solving for epsilon, Initial residual = 0, Final residual = 0, No Iterations 0
DILUPBiCGStab:  Solving for k, Initial residual = 0.00947055, Final residual = 0.0002018, No Iterations 1
ExecutionTime = 3.94 s  ClockTime = 4 s

Time = 77

DILUPBiCGStab:  Solving for Ux, Initial residual = 0.0058315, Final residual = 0.000433837, No Iterations 1
DILUPBiCGStab:  Solving for Uy, Initial residual = 0.011022, Final residual = 0.000188583, No Iterations 1
DILUPBiCGStab:  Solving for Uz, Initial residual = 0.0288734, Final residual = 0.00128721, No Iterations 1
DILUPBiCGStab:  Solving for e, Initial residual = 0.00626364, Final residual = 1.32254e-05, No Iterations 1
DICPCG:  Solving for p_rgh, Initial residual = 0.0543636, Final residual = 0.000496966, No Iterations 158
time step continuity errors : sum local = 14.2938, global = -1.01225, cumulative = -67.3347
DILUPBiCGStab:  Solving for epsilon, Initial residual = 0, Final residual = 0, No Iterations 0
DILUPBiCGStab:  Solving for k, Initial residual = 0.00952331, Final residual = 0.000202199, No Iterations 1
ExecutionTime = 3.99 s  ClockTime = 4 s

Time = 78

DILUPBiCGStab:  Solving for Ux, Initial residual = 0.00571616, Final residual = 0.000425695, No Iterations 1
DILUPBiCGStab:  Solving for Uy, Initial residual = 0.0108899, Final residual = 0.000185015, No Iterations 1
DILUPBiCGStab:  Solving for Uz, Initial residual = 0.0301209, Final residual = 0.00119696, No Iterations 1
DILUPBiCGStab:  Solving for e, Initial residual = 0.00612178, Final residual = 1.19452e-05, No Iterations 1
DICPCG:  Solving for p_rgh, Initial residual = 0.0552951, Final residual = 0.0004358, No Iterations 207
time step continuity errors : sum local = 12.5396, global = 0.00334114, cumulative = -67.3314
DILUPBiCGStab:  Solving for epsilon, Initial residual = 0, Final residual = 0, No Iterations 0
DILUPBiCGStab:  Solving for k, Initial residual = 0.00957918, Final residual = 0.000201642, No Iterations 1
ExecutionTime = 4.05 s  ClockTime = 4 s

Time = 79

DILUPBiCGStab:  Solving for Ux, Initial residual = 0.00560765, Final residual = 0.000420116, No Iterations 1
DILUPBiCGStab:  Solving for Uy, Initial residual = 0.0107149, Final residual = 0.000183044, No Iterations 1
DILUPBiCGStab:  Solving for Uz, Initial residual = 0.03102, Final residual = 0.00116029, No Iterations 1
DILUPBiCGStab:  Solving for e, Initial residual = 0.00596894, Final residual = 1.07836e-05, No Iterations 1
DICPCG:  Solving for p_rgh, Initial residual = 0.0573406, Final residual = 0.000528914, No Iterations 180
time step continuity errors : sum local = 15.3778, global = 0.159012, cumulative = -67.1723
DILUPBiCGStab:  Solving for epsilon, Initial residual = 0, Final residual = 0, No Iterations 0
DILUPBiCGStab:  Solving for k, Initial residual = 0.00966256, Final residual = 0.00020257, No Iterations 1
ExecutionTime = 4.11 s  ClockTime = 4 s

Time = 80

DILUPBiCGStab:  Solving for Ux, Initial residual = 0.00553278, Final residual = 0.000413628, No Iterations 1
DILUPBiCGStab:  Solving for Uy, Initial residual = 0.0106823, Final residual = 0.000181144, No Iterations 1
DILUPBiCGStab:  Solving for Uz, Initial residual = 0.0311585, Final residual = 0.00110859, No Iterations 1
DILUPBiCGStab:  Solving for e, Initial residual = 0.00581197, Final residual = 9.71843e-06, No Iterations 1
DICPCG:  Solving for p_rgh, Initial residual = 0.0566618, Final residual = 0.000548727, No Iterations 66
time step continuity errors : sum local = 16.0958, global = -2.07814, cumulative = -69.2505
DILUPBiCGStab:  Solving for epsilon, Initial residual = 0, Final residual = 0, No Iterations 0
DILUPBiCGStab:  Solving for k, Initial residual = 0.00971559, Final residual = 0.000202764, No Iterations 1
ExecutionTime = 4.14 s  ClockTime = 4 s

Time = 81

DILUPBiCGStab:  Solving for Ux, Initial residual = 0.00543202, Final residual = 0.000402147, No Iterations 1
DILUPBiCGStab:  Solving for Uy, Initial residual = 0.0105883, Final residual = 0.000177211, No Iterations 1
DILUPBiCGStab:  Solving for Uz, Initial residual = 0.0305175, Final residual = 0.00111176, No Iterations 1
DILUPBiCGStab:  Solving for e, Initial residual = 0.00565777, Final residual = 8.58493e-06, No Iterations 1
DICPCG:  Solving for p_rgh, Initial residual = 0.0575988, Final residual = 0.000455727, No Iterations 207
time step continuity errors : sum local = 13.3463, global = -0.00543096, cumulative = -69.2559
DILUPBiCGStab:  Solving for epsilon, Initial residual = 0, Final residual = 0, No Iterations 0
DILUPBiCGStab:  Solving for k, Initial residual = 0.00977018, Final residual = 0.000202924, No Iterations 1
ExecutionTime = 4.2 s  ClockTime = 4 s

Time = 82

DILUPBiCGStab:  Solving for Ux, Initial residual = 0.00536495, Final residual = 0.000395746, No Iterations 1
DILUPBiCGStab:  Solving for Uy, Initial residual = 0.0104528, Final residual = 0.000172288, No Iterations 1
DILUPBiCGStab:  Solving for Uz, Initial residual = 0.0307815, Final residual = 0.00113137, No Iterations 1
DILUPBiCGStab:  Solving for e, Initial residual = 0.00550179, Final residual = 7.8294e-06, No Iterations 1
DICPCG:  Solving for p_rgh, Initial residual = 0.0571001, Final residual = 0.000449138, No Iterations 206
time step continuity errors : sum local = 13.2724, global = 0.00870199, cumulative = -69.2472
DILUPBiCGStab:  Solving for epsilon, Initial residual = 0, Final residual = 0, No Iterations 0
DILUPBiCGStab:  Solving for k, Initial residual = 0.00980903, Final residual = 0.000203747, No Iterations 1
ExecutionTime = 4.26 s  ClockTime = 4 s

Time = 83

DILUPBiCGStab:  Solving for Ux, Initial residual = 0.00530854, Final residual = 0.000389704, No Iterations 1
DILUPBiCGStab:  Solving for Uy, Initial residual = 0.0103239, Final residual = 0.000167624, No Iterations 1
DILUPBiCGStab:  Solving for Uz, Initial residual = 0.032013, Final residual = 0.00121963, No Iterations 1
DILUPBiCGStab:  Solving for e, Initial residual = 0.00535661, Final residual = 7.14371e-06, No Iterations 1
DICPCG:  Solving for p_rgh, Initial residual = 0.057019, Final residual = 0.00056502, No Iterations 69
time step continuity errors : sum local = 16.8411, global = -2.0543, cumulative = -71.3015
DILUPBiCGStab:  Solving for epsilon, Initial residual = 0, Final residual = 0, No Iterations 0
DILUPBiCGStab:  Solving for k, Initial residual = 0.00985963, Final residual = 0.000204977, No Iterations 1
ExecutionTime = 4.3 s  ClockTime = 5 s

Time = 84

DILUPBiCGStab:  Solving for Ux, Initial residual = 0.00520924, Final residual = 0.000378136, No Iterations 1
DILUPBiCGStab:  Solving for Uy, Initial residual = 0.0101592, Final residual = 0.000161851, No Iterations 1
DILUPBiCGStab:  Solving for Uz, Initial residual = 0.0325338, Final residual = 0.00126711, No Iterations 1
DILUPBiCGStab:  Solving for e, Initial residual = 0.00522472, Final residual = 6.802e-06, No Iterations 1
DICPCG:  Solving for p_rgh, Initial residual = 0.0576699, Final residual = 0.000544927, No Iterations 160
time step continuity errors : sum local = 16.245, global = 0.0111481, cumulative = -71.2904
DILUPBiCGStab:  Solving for epsilon, Initial residual = 0, Final residual = 0, No Iterations 0
DILUPBiCGStab:  Solving for k, Initial residual = 0.00989998, Final residual = 0.000205636, No Iterations 1
ExecutionTime = 4.35 s  ClockTime = 5 s

Time = 85

DILUPBiCGStab:  Solving for Ux, Initial residual = 0.00514866, Final residual = 0.000372178, No Iterations 1
DILUPBiCGStab:  Solving for Uy, Initial residual = 0.00993257, Final residual = 0.000155388, No Iterations 1
DILUPBiCGStab:  Solving for Uz, Initial residual = 0.0328826, Final residual = 0.00125999, No Iterations 1
DILUPBiCGStab:  Solving for e, Initial residual = 0.00510669, Final residual = 6.89656e-06, No Iterations 1
DICPCG:  Solving for p_rgh, Initial residual = 0.0592423, Final residual = 0.0005574, No Iterations 175
time step continuity errors : sum local = 16.7993, global = 0.0491913, cumulative = -71.2412
DILUPBiCGStab:  Solving for epsilon, Initial residual = 0, Final residual = 0, No Iterations 0
DILUPBiCGStab:  Solving for k, Initial residual = 0.00993426, Final residual = 0.000207278, No Iterations 1
ExecutionTime = 4.4 s  ClockTime = 5 s

Time = 86

DILUPBiCGStab:  Solving for Ux, Initial residual = 0.00510037, Final residual = 0.000364921, No Iterations 1
DILUPBiCGStab:  Solving for Uy, Initial residual = 0.00975361, Final residual = 0.000964601, No Iterations 1
DILUPBiCGStab:  Solving for Uz, Initial residual = 0.0345775, Final residual = 0.00138954, No Iterations 1
DILUPBiCGStab:  Solving for e, Initial residual = 0.0050014, Final residual = 7.25049e-06, No Iterations 1
DICPCG:  Solving for p_rgh, Initial residual = 0.0586695, Final residual = 0.000575022, No Iterations 73
time step continuity errors : sum local = 17.5155, global = -2.74278, cumulative = -73.984
DILUPBiCGStab:  Solving for epsilon, Initial residual = 0, Final residual = 0, No Iterations 0
DILUPBiCGStab:  Solving for k, Initial residual = 0.00996105, Final residual = 0.000207069, No Iterations 1
ExecutionTime = 4.44 s  ClockTime = 5 s

Time = 87

DILUPBiCGStab:  Solving for Ux, Initial residual = 0.00501546, Final residual = 0.000352143, No Iterations 1
DILUPBiCGStab:  Solving for Uy, Initial residual = 0.0096068, Final residual = 0.000146298, No Iterations 1
DILUPBiCGStab:  Solving for Uz, Initial residual = 0.036284, Final residual = 0.00146303, No Iterations 1
DILUPBiCGStab:  Solving for e, Initial residual = 0.00489942, Final residual = 7.65013e-06, No Iterations 1
DICPCG:  Solving for p_rgh, Initial residual = 0.0587315, Final residual = 0.000570986, No Iterations 203
time step continuity errors : sum local = 17.3848, global = 0.137382, cumulative = -73.8466
DILUPBiCGStab:  Solving for epsilon, Initial residual = 0, Final residual = 0, No Iterations 0
DILUPBiCGStab:  Solving for k, Initial residual = 0.00997848, Final residual = 0.000206829, No Iterations 1
ExecutionTime = 4.5 s  ClockTime = 5 s

Time = 88

DILUPBiCGStab:  Solving for Ux, Initial residual = 0.00498248, Final residual = 0.000341949, No Iterations 1
DILUPBiCGStab:  Solving for Uy, Initial residual = 0.00936264, Final residual = 0.000887745, No Iterations 1
DILUPBiCGStab:  Solving for Uz, Initial residual = 0.0375973, Final residual = 0.00139196, No Iterations 1
DILUPBiCGStab:  Solving for e, Initial residual = 0.00479167, Final residual = 8.17361e-06, No Iterations 1
DICPCG:  Solving for p_rgh, Initial residual = 0.0557507, Final residual = 0.000509988, No Iterations 203
time step continuity errors : sum local = 15.6687, global = -0.0397669, cumulative = -73.8863
DILUPBiCGStab:  Solving for epsilon, Initial residual = 0, Final residual = 0, No Iterations 0
DILUPBiCGStab:  Solving for k, Initial residual = 0.0100123, Final residual = 0.000205076, No Iterations 1
ExecutionTime = 4.56 s  ClockTime = 5 s

Time = 89

DILUPBiCGStab:  Solving for Ux, Initial residual = 0.00494238, Final residual = 0.000328044, No Iterations 1
[...]
DICPCG:  Solving for p_rgh, Initial residual = 0.076943, Final residual = 0.000748078, No Iterations 203
time step continuity errors : sum local = 59.5655, global = 0.0465619, cumulative = -1095.72
DILUPBiCGStab:  Solving for epsilon, Initial residual = 0, Final residual = 0, No Iterations 0
DILUPBiCGStab:  Solving for k, Initial residual = 0.013725, Final residual = 0.000554911, No Iterations 1
ExecutionTime = 44.18 s  ClockTime = 45 s

Time = 979

DILUPBiCGStab:  Solving for Ux, Initial residual = 0.0101802, Final residual = 0.000718328, No Iterations 1
DILUPBiCGStab:  Solving for Uy, Initial residual = 0.0100211, Final residual = 0.000868479, No Iterations 1
DILUPBiCGStab:  Solving for Uz, Initial residual = 0.0220379, Final residual = 0.00110134, No Iterations 1
DILUPBiCGStab:  Solving for e, Initial residual = 0.00793982, Final residual = 0.000194926, No Iterations 1
DICPCG:  Solving for p_rgh, Initial residual = 0.0797159, Final residual = 0.000710689, No Iterations 203
time step continuity errors : sum local = 55.9158, global = -0.0650531, cumulative = -1095.79
DILUPBiCGStab:  Solving for epsilon, Initial residual = 0, Final residual = 0, No Iterations 0
DILUPBiCGStab:  Solving for k, Initial residual = 0.0140417, Final residual = 0.000555009, No Iterations 1
ExecutionTime = 44.24 s  ClockTime = 45 s

Time = 980

DILUPBiCGStab:  Solving for Ux, Initial residual = 0.0100422, Final residual = 0.000694847, No Iterations 1
DILUPBiCGStab:  Solving for Uy, Initial residual = 0.00997, Final residual = 0.000922233, No Iterations 1
DILUPBiCGStab:  Solving for Uz, Initial residual = 0.0223366, Final residual = 0.0010661, No Iterations 1
DILUPBiCGStab:  Solving for e, Initial residual = 0.00808393, Final residual = 0.000189822, No Iterations 1
DICPCG:  Solving for p_rgh, Initial residual = 0.0830812, Final residual = 0.000826027, No Iterations 127
time step continuity errors : sum local = 64.5063, global = 5.21973, cumulative = -1090.57
DILUPBiCGStab:  Solving for epsilon, Initial residual = 0, Final residual = 0, No Iterations 0
DILUPBiCGStab:  Solving for k, Initial residual = 0.0141247, Final residual = 0.000570816, No Iterations 1
ExecutionTime = 44.29 s  ClockTime = 45 s

Time = 981

DILUPBiCGStab:  Solving for Ux, Initial residual = 0.00971472, Final residual = 0.00060278, No Iterations 1
DILUPBiCGStab:  Solving for Uy, Initial residual = 0.0102654, Final residual = 0.000949447, No Iterations 1
DILUPBiCGStab:  Solving for Uz, Initial residual = 0.0222148, Final residual = 0.00104156, No Iterations 1
DILUPBiCGStab:  Solving for e, Initial residual = 0.00830058, Final residual = 0.00018335, No Iterations 1
DICPCG:  Solving for p_rgh, Initial residual = 0.0827572, Final residual = 0.000816935, No Iterations 36
time step continuity errors : sum local = 64.2692, global = 10.831, cumulative = -1079.74
DILUPBiCGStab:  Solving for epsilon, Initial residual = 0, Final residual = 0, No Iterations 0
DILUPBiCGStab:  Solving for k, Initial residual = 0.0140659, Final residual = 0.000581558, No Iterations 1
ExecutionTime = 44.32 s  ClockTime = 45 s

Time = 982

DILUPBiCGStab:  Solving for Ux, Initial residual = 0.00944872, Final residual = 0.00052387, No Iterations 1
DILUPBiCGStab:  Solving for Uy, Initial residual = 0.0104896, Final residual = 0.000916158, No Iterations 1
DILUPBiCGStab:  Solving for Uz, Initial residual = 0.0220056, Final residual = 0.00102545, No Iterations 1
DILUPBiCGStab:  Solving for e, Initial residual = 0.00855836, Final residual = 0.000175482, No Iterations 1
DICPCG:  Solving for p_rgh, Initial residual = 0.0809967, Final residual = 0.000761239, No Iterations 203
time step continuity errors : sum local = 60.4277, global = 0.0397623, cumulative = -1079.7
DILUPBiCGStab:  Solving for epsilon, Initial residual = 0, Final residual = 0, No Iterations 0
DILUPBiCGStab:  Solving for k, Initial residual = 0.0138994, Final residual = 0.000602897, No Iterations 1
ExecutionTime = 44.38 s  ClockTime = 45 s

Time = 983

DILUPBiCGStab:  Solving for Ux, Initial residual = 0.00917982, Final residual = 0.000500357, No Iterations 1
DILUPBiCGStab:  Solving for Uy, Initial residual = 0.0104488, Final residual = 0.000852645, No Iterations 1
DILUPBiCGStab:  Solving for Uz, Initial residual = 0.022295, Final residual = 0.00104116, No Iterations 1
DILUPBiCGStab:  Solving for e, Initial residual = 0.00876209, Final residual = 0.000172048, No Iterations 1
DICPCG:  Solving for p_rgh, Initial residual = 0.0810046, Final residual = 0.000789443, No Iterations 202
time step continuity errors : sum local = 62.6449, global = 0.188443, cumulative = -1079.51
DILUPBiCGStab:  Solving for epsilon, Initial residual = 0, Final residual = 0, No Iterations 0
DILUPBiCGStab:  Solving for k, Initial residual = 0.0136407, Final residual = 0.000632154, No Iterations 1
ExecutionTime = 44.44 s  ClockTime = 45 s

Time = 984

DILUPBiCGStab:  Solving for Ux, Initial residual = 0.00899606, Final residual = 0.000516117, No Iterations 1
DILUPBiCGStab:  Solving for Uy, Initial residual = 0.0103006, Final residual = 0.000791889, No Iterations 1
DILUPBiCGStab:  Solving for Uz, Initial residual = 0.0221292, Final residual = 0.00110498, No Iterations 1
DILUPBiCGStab:  Solving for e, Initial residual = 0.00894306, Final residual = 0.000172605, No Iterations 1
DICPCG:  Solving for p_rgh, Initial residual = 0.0848753, Final residual = 0.000843287, No Iterations 151
time step continuity errors : sum local = 67.4373, global = 8.54719, cumulative = -1070.96
DILUPBiCGStab:  Solving for epsilon, Initial residual = 0, Final residual = 0, No Iterations 0
DILUPBiCGStab:  Solving for k, Initial residual = 0.0134559, Final residual = 0.000659616, No Iterations 1
ExecutionTime = 44.49 s  ClockTime = 45 s

Time = 985

DILUPBiCGStab:  Solving for Ux, Initial residual = 0.0090289, Final residual = 0.000552842, No Iterations 1
DILUPBiCGStab:  Solving for Uy, Initial residual = 0.0101974, Final residual = 0.000773006, No Iterations 1
DILUPBiCGStab:  Solving for Uz, Initial residual = 0.0224411, Final residual = 0.00116217, No Iterations 1
DILUPBiCGStab:  Solving for e, Initial residual = 0.00914772, Final residual = 0.000169503, No Iterations 1
DICPCG:  Solving for p_rgh, Initial residual = 0.0835003, Final residual = 0.00062905, No Iterations 201
time step continuity errors : sum local = 51.2434, global = 0.0717982, cumulative = -1070.89
DILUPBiCGStab:  Solving for epsilon, Initial residual = 0, Final residual = 0, No Iterations 0
DILUPBiCGStab:  Solving for k, Initial residual = 0.0132256, Final residual = 0.000662463, No Iterations 1
ExecutionTime = 44.55 s  ClockTime = 45 s

Time = 986

DILUPBiCGStab:  Solving for Ux, Initial residual = 0.00919454, Final residual = 0.000573912, No Iterations 1
DILUPBiCGStab:  Solving for Uy, Initial residual = 0.0103008, Final residual = 0.000765642, No Iterations 1
DILUPBiCGStab:  Solving for Uz, Initial residual = 0.0215684, Final residual = 0.00116347, No Iterations 1
DILUPBiCGStab:  Solving for e, Initial residual = 0.00934902, Final residual = 0.000167458, No Iterations 1
DICPCG:  Solving for p_rgh, Initial residual = 0.0839363, Final residual = 0.0008278, No Iterations 35
time step continuity errors : sum local = 69.9605, global = 3.71918, cumulative = -1067.17
DILUPBiCGStab:  Solving for epsilon, Initial residual = 0, Final residual = 0, No Iterations 0
DILUPBiCGStab:  Solving for k, Initial residual = 0.0129624, Final residual = 0.00065722, No Iterations 1
ExecutionTime = 44.58 s  ClockTime = 45 s

Time = 987

DILUPBiCGStab:  Solving for Ux, Initial residual = 0.00945198, Final residual = 0.000590063, No Iterations 1
DILUPBiCGStab:  Solving for Uy, Initial residual = 0.0105189, Final residual = 0.000754737, No Iterations 1
DILUPBiCGStab:  Solving for Uz, Initial residual = 0.0208278, Final residual = 0.00116481, No Iterations 1
DILUPBiCGStab:  Solving for e, Initial residual = 0.00949576, Final residual = 0.000162766, No Iterations 1
DICPCG:  Solving for p_rgh, Initial residual = 0.0838803, Final residual = 0.000809192, No Iterations 136
time step continuity errors : sum local = 73.3246, global = -3.48486, cumulative = -1070.66
DILUPBiCGStab:  Solving for epsilon, Initial residual = 0, Final residual = 0, No Iterations 0
DILUPBiCGStab:  Solving for k, Initial residual = 0.0127141, Final residual = 0.000661868, No Iterations 1
ExecutionTime = 44.62 s  ClockTime = 45 s

Time = 988

DILUPBiCGStab:  Solving for Ux, Initial residual = 0.00974725, Final residual = 0.000587458, No Iterations 1
DILUPBiCGStab:  Solving for Uy, Initial residual = 0.01097, Final residual = 0.000804495, No Iterations 1
DILUPBiCGStab:  Solving for Uz, Initial residual = 0.0205409, Final residual = 0.00112572, No Iterations 1
DILUPBiCGStab:  Solving for e, Initial residual = 0.00962845, Final residual = 0.000156023, No Iterations 1
DICPCG:  Solving for p_rgh, Initial residual = 0.082557, Final residual = 0.0008241, No Iterations 68
time step continuity errors : sum local = 71.8983, global = -10.4274, cumulative = -1081.08
DILUPBiCGStab:  Solving for epsilon, Initial residual = 0, Final residual = 0, No Iterations 0
DILUPBiCGStab:  Solving for k, Initial residual = 0.0124781, Final residual = 0.000654465, No Iterations 1
ExecutionTime = 44.66 s  ClockTime = 46 s

Time = 989

DILUPBiCGStab:  Solving for Ux, Initial residual = 0.01023, Final residual = 0.000589363, No Iterations 1
DILUPBiCGStab:  Solving for Uy, Initial residual = 0.0114388, Final residual = 0.000926933, No Iterations 1
DILUPBiCGStab:  Solving for Uz, Initial residual = 0.0199438, Final residual = 0.00103096, No Iterations 1
DILUPBiCGStab:  Solving for e, Initial residual = 0.00972755, Final residual = 0.000151712, No Iterations 1
DICPCG:  Solving for p_rgh, Initial residual = 0.0780253, Final residual = 0.00075905, No Iterations 34
time step continuity errors : sum local = 68.3253, global = -14.9515, cumulative = -1096.04
DILUPBiCGStab:  Solving for epsilon, Initial residual = 0, Final residual = 0, No Iterations 0
DILUPBiCGStab:  Solving for k, Initial residual = 0.0120891, Final residual = 0.000649978, No Iterations 1
ExecutionTime = 44.69 s  ClockTime = 46 s

Time = 990

DILUPBiCGStab:  Solving for Ux, Initial residual = 0.00999408, Final residual = 0.000579591, No Iterations 1
DILUPBiCGStab:  Solving for Uy, Initial residual = 0.0113146, Final residual = 0.00106, No Iterations 1
DILUPBiCGStab:  Solving for Uz, Initial residual = 0.0198037, Final residual = 0.00100006, No Iterations 1
DILUPBiCGStab:  Solving for e, Initial residual = 0.0096583, Final residual = 0.000143454, No Iterations 1
DICPCG:  Solving for p_rgh, Initial residual = 0.0833287, Final residual = 0.000756796, No Iterations 39
time step continuity errors : sum local = 62.2396, global = -18.1949, cumulative = -1114.23
DILUPBiCGStab:  Solving for epsilon, Initial residual = 0, Final residual = 0, No Iterations 0
DILUPBiCGStab:  Solving for k, Initial residual = 0.011626, Final residual = 0.000632478, No Iterations 1
ExecutionTime = 44.72 s  ClockTime = 46 s

Time = 991

DILUPBiCGStab:  Solving for Ux, Initial residual = 0.00972011, Final residual = 0.000608111, No Iterations 1
DILUPBiCGStab:  Solving for Uy, Initial residual = 0.0110791, Final residual = 0.000166635, No Iterations 1
DILUPBiCGStab:  Solving for Uz, Initial residual = 0.019438, Final residual = 0.000865854, No Iterations 1
DILUPBiCGStab:  Solving for e, Initial residual = 0.00972202, Final residual = 0.000137271, No Iterations 1
DICPCG:  Solving for p_rgh, Initial residual = 0.0862516, Final residual = 0.000838476, No Iterations 164
time step continuity errors : sum local = 68.5089, global = 0.163866, cumulative = -1114.07
DILUPBiCGStab:  Solving for epsilon, Initial residual = 0, Final residual = 0, No Iterations 0
DILUPBiCGStab:  Solving for k, Initial residual = 0.011165, Final residual = 0.000610596, No Iterations 1
ExecutionTime = 44.77 s  ClockTime = 46 s

Time = 992

DILUPBiCGStab:  Solving for Ux, Initial residual = 0.00976419, Final residual = 0.000680464, No Iterations 1
DILUPBiCGStab:  Solving for Uy, Initial residual = 0.0109822, Final residual = 0.000173211, No Iterations 1
DILUPBiCGStab:  Solving for Uz, Initial residual = 0.018975, Final residual = 0.000891116, No Iterations 1
DILUPBiCGStab:  Solving for e, Initial residual = 0.00976949, Final residual = 0.000134211, No Iterations 1
DICPCG:  Solving for p_rgh, Initial residual = 0.0872141, Final residual = 0.000847826, No Iterations 52
time step continuity errors : sum local = 68.9664, global = -11.0147, cumulative = -1125.08
DILUPBiCGStab:  Solving for epsilon, Initial residual = 0, Final residual = 0, No Iterations 0
DILUPBiCGStab:  Solving for k, Initial residual = 0.0108917, Final residual = 0.000595927, No Iterations 1
ExecutionTime = 44.81 s  ClockTime = 46 s

Time = 993

DILUPBiCGStab:  Solving for Ux, Initial residual = 0.00981697, Final residual = 0.00082236, No Iterations 1
DILUPBiCGStab:  Solving for Uy, Initial residual = 0.0109377, Final residual = 0.000173493, No Iterations 1
DILUPBiCGStab:  Solving for Uz, Initial residual = 0.0191366, Final residual = 0.000933889, No Iterations 1
DILUPBiCGStab:  Solving for e, Initial residual = 0.00966387, Final residual = 0.000129309, No Iterations 1
DICPCG:  Solving for p_rgh, Initial residual = 0.0883102, Final residual = 0.000880992, No Iterations 105
time step continuity errors : sum local = 71.9907, global = 0.0807362, cumulative = -1125
DILUPBiCGStab:  Solving for epsilon, Initial residual = 0, Final residual = 0, No Iterations 0
DILUPBiCGStab:  Solving for k, Initial residual = 0.010686, Final residual = 0.000623244, No Iterations 1
ExecutionTime = 44.85 s  ClockTime = 46 s

Time = 994

DILUPBiCGStab:  Solving for Ux, Initial residual = 0.00983958, Final residual = 0.000124684, No Iterations 1
DILUPBiCGStab:  Solving for Uy, Initial residual = 0.010726, Final residual = 0.000164082, No Iterations 1
DILUPBiCGStab:  Solving for Uz, Initial residual = 0.0191581, Final residual = 0.000992974, No Iterations 1
DILUPBiCGStab:  Solving for e, Initial residual = 0.00953953, Final residual = 0.000126026, No Iterations 1
DICPCG:  Solving for p_rgh, Initial residual = 0.0897119, Final residual = 0.000789814, No Iterations 134
time step continuity errors : sum local = 65.4164, global = 0.129298, cumulative = -1124.87
DILUPBiCGStab:  Solving for epsilon, Initial residual = 0, Final residual = 0, No Iterations 0
DILUPBiCGStab:  Solving for k, Initial residual = 0.010475, Final residual = 0.000670685, No Iterations 1
ExecutionTime = 44.9 s  ClockTime = 46 s

Time = 995

DILUPBiCGStab:  Solving for Ux, Initial residual = 0.00983896, Final residual = 0.000152238, No Iterations 1
DILUPBiCGStab:  Solving for Uy, Initial residual = 0.0107435, Final residual = 0.000160552, No Iterations 1
DILUPBiCGStab:  Solving for Uz, Initial residual = 0.0196445, Final residual = 0.00107937, No Iterations 1
DILUPBiCGStab:  Solving for e, Initial residual = 0.00942988, Final residual = 0.000125312, No Iterations 1
DICPCG:  Solving for p_rgh, Initial residual = 0.104684, Final residual = 0.000884385, No Iterations 109
time step continuity errors : sum local = 75.2563, global = -4.6202, cumulative = -1129.49
DILUPBiCGStab:  Solving for epsilon, Initial residual = 0, Final residual = 0, No Iterations 0
DILUPBiCGStab:  Solving for k, Initial residual = 0.0103585, Final residual = 0.000711642, No Iterations 1
ExecutionTime = 44.94 s  ClockTime = 46 s

Time = 996

DILUPBiCGStab:  Solving for Ux, Initial residual = 0.0102205, Final residual = 0.000176579, No Iterations 1
DILUPBiCGStab:  Solving for Uy, Initial residual = 0.0106917, Final residual = 0.000163986, No Iterations 1
DILUPBiCGStab:  Solving for Uz, Initial residual = 0.0200666, Final residual = 0.00118284, No Iterations 1
DILUPBiCGStab:  Solving for e, Initial residual = 0.00937503, Final residual = 0.000129029, No Iterations 1
DICPCG:  Solving for p_rgh, Initial residual = 0.130696, Final residual = 0.00124657, No Iterations 55
time step continuity errors : sum local = 109.212, global = -18.8621, cumulative = -1148.35
DILUPBiCGStab:  Solving for epsilon, Initial residual = 0, Final residual = 0, No Iterations 0
DILUPBiCGStab:  Solving for k, Initial residual = 0.0103051, Final residual = 0.000726196, No Iterations 1
ExecutionTime = 44.97 s  ClockTime = 46 s

Time = 997

DILUPBiCGStab:  Solving for Ux, Initial residual = 0.0110793, Final residual = 0.000210171, No Iterations 1
DILUPBiCGStab:  Solving for Uy, Initial residual = 0.0102484, Final residual = 0.000167604, No Iterations 1
DILUPBiCGStab:  Solving for Uz, Initial residual = 0.020735, Final residual = 0.00120106, No Iterations 1
DILUPBiCGStab:  Solving for e, Initial residual = 0.00934339, Final residual = 0.000140955, No Iterations 1
DICPCG:  Solving for p_rgh, Initial residual = 0.0966097, Final residual = 0.000768243, No Iterations 201
time step continuity errors : sum local = 62.4755, global = 1.08198e-05, cumulative = -1148.35
DILUPBiCGStab:  Solving for epsilon, Initial residual = 0, Final residual = 0, No Iterations 0
DILUPBiCGStab:  Solving for k, Initial residual = 0.0103813, Final residual = 0.000654371, No Iterations 1
ExecutionTime = 45.03 s  ClockTime = 46 s

Time = 998

DILUPBiCGStab:  Solving for Ux, Initial residual = 0.0121105, Final residual = 0.000203189, No Iterations 1
DILUPBiCGStab:  Solving for Uy, Initial residual = 0.0101568, Final residual = 0.000168502, No Iterations 1
DILUPBiCGStab:  Solving for Uz, Initial residual = 0.0211567, Final residual = 0.00111744, No Iterations 1
DILUPBiCGStab:  Solving for e, Initial residual = 0.00932192, Final residual = 0.000143427, No Iterations 1
DICPCG:  Solving for p_rgh, Initial residual = 0.0774179, Final residual = 0.000766163, No Iterations 75
time step continuity errors : sum local = 61.4879, global = -0.0342965, cumulative = -1148.39
DILUPBiCGStab:  Solving for epsilon, Initial residual = 0, Final residual = 0, No Iterations 0
DILUPBiCGStab:  Solving for k, Initial residual = 0.010276, Final residual = 0.000629026, No Iterations 1
ExecutionTime = 45.07 s  ClockTime = 46 s

Time = 999

DILUPBiCGStab:  Solving for Ux, Initial residual = 0.0112568, Final residual = 0.000180096, No Iterations 1
DILUPBiCGStab:  Solving for Uy, Initial residual = 0.00957748, Final residual = 0.000160618, No Iterations 1
DILUPBiCGStab:  Solving for Uz, Initial residual = 0.0213246, Final residual = 0.00117912, No Iterations 1
DILUPBiCGStab:  Solving for e, Initial residual = 0.00930129, Final residual = 0.000148089, No Iterations 1
DICPCG:  Solving for p_rgh, Initial residual = 0.0748913, Final residual = 0.000683248, No Iterations 153
time step continuity errors : sum local = 55.4057, global = -5.44758, cumulative = -1153.84
DILUPBiCGStab:  Solving for epsilon, Initial residual = 0, Final residual = 0, No Iterations 0
DILUPBiCGStab:  Solving for k, Initial residual = 0.0101822, Final residual = 0.00061797, No Iterations 1
ExecutionTime = 45.12 s  ClockTime = 46 s

Time = 1000

DILUPBiCGStab:  Solving for Ux, Initial residual = 0.010053, Final residual = 0.000174975, No Iterations 1
DILUPBiCGStab:  Solving for Uy, Initial residual = 0.0083562, Final residual = 0.000132974, No Iterations 1
DILUPBiCGStab:  Solving for Uz, Initial residual = 0.0213155, Final residual = 0.00120678, No Iterations 1
DILUPBiCGStab:  Solving for e, Initial residual = 0.00923577, Final residual = 0.000144532, No Iterations 1
DICPCG:  Solving for p_rgh, Initial residual = 0.0696502, Final residual = 0.000655017, No Iterations 154
time step continuity errors : sum local = 55.7411, global = -10.0125, cumulative = -1163.85
DILUPBiCGStab:  Solving for epsilon, Initial residual = 0, Final residual = 0, No Iterations 0
DILUPBiCGStab:  Solving for k, Initial residual = 0.0101635, Final residual = 0.000597109, No Iterations 1
ExecutionTime = 45.3 s  ClockTime = 46 s

End

