/*---------------------------------------------------------------------------*\
  =========                 |
  \\      /  F ield         | OpenFOAM: The Open Source CFD Toolbox
   \\    /   O peration     | Website:  https://openfoam.org
    \\  /    A nd           | Version:  8
     \\/     M anipulation  |
\*---------------------------------------------------------------------------*/
Build  : 8-1c9b5879390b
Exec   : buoyantSimpleFoam
Date   : Jan 27 2025
Time   : 15:05:10
Host   : "658dd9edf29b"
PID    : 1005
I/O    : uncollated
Case   : /home/openfoam/run/straightPipe/Re5000/q-500
nProcs : 1
sigFpe : Enabling floating point exception trapping (FOAM_SIGFPE).
fileModificationChecking : Monitoring run-time modified files using timeStampMaster (fileModificationSkew 10)
allowSystemOperations : Allowing user-supplied system call operations

// * * * * * * * * * * * * * * * * * * * * * * * * * * * * * * * * * * * * * //
Create time

Create mesh for time = 0


SIMPLE: Convergence criteria found
        p_rgh: tolerance 0.01
        U: tolerance 0.0001
        e: tolerance 0.01
        "(k|epsilon|omega)": tolerance 0.001

Reading thermophysical properties

Selecting thermodynamics package 
{
    type            heRhoThermo;
    mixture         pureMixture;
    transport       const;
    thermo          eConst;
    equationOfState Boussinesq;
    specie          specie;
    energy          sensibleInternalEnergy;
}

Reading field U

Reading/calculating face flux field phi

Creating turbulence model

Selecting turbulence model type RAS
Selecting RAS turbulence model kEpsilon
RAS
{
    RASModel        kEpsilon;
    turbulence      on;
    printCoeffs     on;
    Cmu             0.09;
    C1              1.44;
    C2              1.92;
    C3              0;
    sigmak          1;
    sigmaEps        1.3;
}

Creating thermophysical transport model

Selecting thermophysical transport type RAS
Selecting default RAS thermophysical transport model eddyDiffusivity

Reading g

Reading hRef
Calculating field g.h


Reading pRef
Reading field p_rgh

--> FOAM Warning : 
    From function const Foam::HashTable<Foam::List<int>, Foam::word>& Foam::polyBoundaryMesh::groupPatchIDs() const
    in file meshes/polyMesh/polyBoundaryMesh/polyBoundaryMesh.C at line 473
    Removing patchGroup 'wall' which clashes with patch 0 of the same name.
No MRF models present

Radiation model not active: radiationProperties not found
Selecting radiationModel none
No finite volume options present

Starting time loop

Time = 1

DILUPBiCGStab:  Solving for Ux, Initial residual = 1, Final residual = 0.0320649, No Iterations 1
DILUPBiCGStab:  Solving for Uy, Initial residual = 1, Final residual = 0.00182234, No Iterations 1
DILUPBiCGStab:  Solving for Uz, Initial residual = 1, Final residual = 0.0530194, No Iterations 1
DILUPBiCGStab:  Solving for e, Initial residual = 1, Final residual = 1.59582e-05, No Iterations 1
DICPCG:  Solving for p_rgh, Initial residual = 0.971694, Final residual = 0.00967929, No Iterations 93
time step continuity errors : sum local = 5.4536, global = -0.0121969, cumulative = -0.0121969
DILUPBiCGStab:  Solving for epsilon, Initial residual = 0, Final residual = 0, No Iterations 0
DILUPBiCGStab:  Solving for k, Initial residual = 1, Final residual = 0.0127725, No Iterations 1
ExecutionTime = 0.13 s  ClockTime = 0 s

Time = 2

DILUPBiCGStab:  Solving for Ux, Initial residual = 0.863154, Final residual = 0.00918459, No Iterations 1
DILUPBiCGStab:  Solving for Uy, Initial residual = 0.975728, Final residual = 0.00136898, No Iterations 1
DILUPBiCGStab:  Solving for Uz, Initial residual = 0.866225, Final residual = 0.00855664, No Iterations 1
DILUPBiCGStab:  Solving for e, Initial residual = 0.203958, Final residual = 0.00012615, No Iterations 1
DICPCG:  Solving for p_rgh, Initial residual = 0.772121, Final residual = 0.00734684, No Iterations 89
time step continuity errors : sum local = 23.8999, global = -0.153263, cumulative = -0.16546
DILUPBiCGStab:  Solving for epsilon, Initial residual = 0, Final residual = 0, No Iterations 0
DILUPBiCGStab:  Solving for k, Initial residual = 0.471923, Final residual = 0.000785948, No Iterations 1
ExecutionTime = 0.14 s  ClockTime = 0 s

Time = 3

DILUPBiCGStab:  Solving for Ux, Initial residual = 0.36578, Final residual = 0.0300346, No Iterations 1
DILUPBiCGStab:  Solving for Uy, Initial residual = 0.826086, Final residual = 0.0717532, No Iterations 1
DILUPBiCGStab:  Solving for Uz, Initial residual = 0.943328, Final residual = 0.0701762, No Iterations 1
DILUPBiCGStab:  Solving for e, Initial residual = 0.105656, Final residual = 0.00480984, No Iterations 1
DICPCG:  Solving for p_rgh, Initial residual = 0.833052, Final residual = 0.00578952, No Iterations 89
time step continuity errors : sum local = 24.9098, global = -0.134563, cumulative = -0.300022
DILUPBiCGStab:  Solving for epsilon, Initial residual = 0, Final residual = 0, No Iterations 0
DILUPBiCGStab:  Solving for k, Initial residual = 0.111394, Final residual = 0.00575114, No Iterations 1
ExecutionTime = 0.14 s  ClockTime = 0 s

Time = 4

DILUPBiCGStab:  Solving for Ux, Initial residual = 0.742633, Final residual = 0.0118249, No Iterations 1
DILUPBiCGStab:  Solving for Uy, Initial residual = 0.417694, Final residual = 0.0177237, No Iterations 1
DILUPBiCGStab:  Solving for Uz, Initial residual = 0.42682, Final residual = 0.0143834, No Iterations 1
DILUPBiCGStab:  Solving for e, Initial residual = 0.0900743, Final residual = 0.00142093, No Iterations 1
DICPCG:  Solving for p_rgh, Initial residual = 0.608959, Final residual = 0.00574491, No Iterations 89
time step continuity errors : sum local = 42.0059, global = -1.50008, cumulative = -1.8001
DILUPBiCGStab:  Solving for epsilon, Initial residual = 0, Final residual = 0, No Iterations 0
DILUPBiCGStab:  Solving for k, Initial residual = 0.0635404, Final residual = 0.00170377, No Iterations 1
ExecutionTime = 0.15 s  ClockTime = 0 s

Time = 5

DILUPBiCGStab:  Solving for Ux, Initial residual = 0.486705, Final residual = 0.00722952, No Iterations 1
DILUPBiCGStab:  Solving for Uy, Initial residual = 0.20945, Final residual = 0.00830074, No Iterations 1
DILUPBiCGStab:  Solving for Uz, Initial residual = 0.447111, Final residual = 0.0212139, No Iterations 1
DILUPBiCGStab:  Solving for e, Initial residual = 0.0713815, Final residual = 0.000975411, No Iterations 1
DICPCG:  Solving for p_rgh, Initial residual = 0.580446, Final residual = 0.00384387, No Iterations 91
time step continuity errors : sum local = 27.8014, global = -0.522602, cumulative = -2.3227
DILUPBiCGStab:  Solving for epsilon, Initial residual = 0, Final residual = 0, No Iterations 0
DILUPBiCGStab:  Solving for k, Initial residual = 0.0377101, Final residual = 0.00099654, No Iterations 1
ExecutionTime = 0.16 s  ClockTime = 0 s

Time = 6

DILUPBiCGStab:  Solving for Ux, Initial residual = 0.539674, Final residual = 0.00674572, No Iterations 1
DILUPBiCGStab:  Solving for Uy, Initial residual = 0.298587, Final residual = 0.00839004, No Iterations 1
DILUPBiCGStab:  Solving for Uz, Initial residual = 0.28996, Final residual = 0.0131131, No Iterations 1
DILUPBiCGStab:  Solving for e, Initial residual = 0.0593229, Final residual = 0.000713466, No Iterations 1
DICPCG:  Solving for p_rgh, Initial residual = 0.437141, Final residual = 0.00323251, No Iterations 91
time step continuity errors : sum local = 21.6421, global = -0.382355, cumulative = -2.70506
DILUPBiCGStab:  Solving for epsilon, Initial residual = 0, Final residual = 0, No Iterations 0
DILUPBiCGStab:  Solving for k, Initial residual = 0.0246427, Final residual = 0.000568488, No Iterations 1
ExecutionTime = 0.16 s  ClockTime = 0 s

Time = 7

DILUPBiCGStab:  Solving for Ux, Initial residual = 0.726019, Final residual = 0.00936218, No Iterations 1
DILUPBiCGStab:  Solving for Uy, Initial residual = 0.324983, Final residual = 0.0116868, No Iterations 1
DILUPBiCGStab:  Solving for Uz, Initial residual = 0.215927, Final residual = 0.00729841, No Iterations 1
DILUPBiCGStab:  Solving for e, Initial residual = 0.0510064, Final residual = 0.000563699, No Iterations 1
DICPCG:  Solving for p_rgh, Initial residual = 0.331008, Final residual = 0.00256581, No Iterations 90
time step continuity errors : sum local = 20.0157, global = -0.375243, cumulative = -3.0803
DILUPBiCGStab:  Solving for epsilon, Initial residual = 0, Final residual = 0, No Iterations 0
DILUPBiCGStab:  Solving for k, Initial residual = 0.0175538, Final residual = 0.000356728, No Iterations 1
ExecutionTime = 0.17 s  ClockTime = 0 s

Time = 8

DILUPBiCGStab:  Solving for Ux, Initial residual = 0.387728, Final residual = 0.00583515, No Iterations 1
DILUPBiCGStab:  Solving for Uy, Initial residual = 0.263036, Final residual = 0.00969529, No Iterations 1
DILUPBiCGStab:  Solving for Uz, Initial residual = 0.211611, Final residual = 0.00619837, No Iterations 1
DILUPBiCGStab:  Solving for e, Initial residual = 0.0450774, Final residual = 0.000451938, No Iterations 1
DICPCG:  Solving for p_rgh, Initial residual = 0.522069, Final residual = 0.00303369, No Iterations 89
time step continuity errors : sum local = 14.7497, global = 0.148459, cumulative = -2.93184
DILUPBiCGStab:  Solving for epsilon, Initial residual = 0, Final residual = 0, No Iterations 0
DILUPBiCGStab:  Solving for k, Initial residual = 0.0136966, Final residual = 0.000256804, No Iterations 1
ExecutionTime = 0.17 s  ClockTime = 0 s

Time = 9

DILUPBiCGStab:  Solving for Ux, Initial residual = 0.621612, Final residual = 0.00860872, No Iterations 1
DILUPBiCGStab:  Solving for Uy, Initial residual = 0.251715, Final residual = 0.0075196, No Iterations 1
DILUPBiCGStab:  Solving for Uz, Initial residual = 0.187648, Final residual = 0.00512427, No Iterations 1
DILUPBiCGStab:  Solving for e, Initial residual = 0.0405581, Final residual = 0.000375199, No Iterations 1
DICPCG:  Solving for p_rgh, Initial residual = 0.438187, Final residual = 0.00434187, No Iterations 89
time step continuity errors : sum local = 22.6854, global = 0.0399718, cumulative = -2.89187
DILUPBiCGStab:  Solving for epsilon, Initial residual = 0, Final residual = 0, No Iterations 0
DILUPBiCGStab:  Solving for k, Initial residual = 0.0116121, Final residual = 0.000209876, No Iterations 1
ExecutionTime = 0.18 s  ClockTime = 0 s

Time = 10

DILUPBiCGStab:  Solving for Ux, Initial residual = 0.724451, Final residual = 0.0105955, No Iterations 1
DILUPBiCGStab:  Solving for Uy, Initial residual = 0.235493, Final residual = 0.0068467, No Iterations 1
DILUPBiCGStab:  Solving for Uz, Initial residual = 0.15009, Final residual = 0.00376243, No Iterations 1
DILUPBiCGStab:  Solving for e, Initial residual = 0.0369323, Final residual = 0.000342427, No Iterations 1
DICPCG:  Solving for p_rgh, Initial residual = 0.364404, Final residual = 0.00334621, No Iterations 89
time step continuity errors : sum local = 19.2134, global = 0.112575, cumulative = -2.77929
DILUPBiCGStab:  Solving for epsilon, Initial residual = 0, Final residual = 0, No Iterations 0
DILUPBiCGStab:  Solving for k, Initial residual = 0.0099606, Final residual = 0.000182544, No Iterations 1
ExecutionTime = 0.19 s  ClockTime = 0 s

Time = 11

DILUPBiCGStab:  Solving for Ux, Initial residual = 0.328093, Final residual = 0.00689918, No Iterations 1
DILUPBiCGStab:  Solving for Uy, Initial residual = 0.16629, Final residual = 0.00507429, No Iterations 1
DILUPBiCGStab:  Solving for Uz, Initial residual = 0.118848, Final residual = 0.00321744, No Iterations 1
DILUPBiCGStab:  Solving for e, Initial residual = 0.0340275, Final residual = 0.000320844, No Iterations 1
DICPCG:  Solving for p_rgh, Initial residual = 0.606232, Final residual = 0.00574055, No Iterations 86
time step continuity errors : sum local = 19.0139, global = 0.314433, cumulative = -2.46486
DILUPBiCGStab:  Solving for epsilon, Initial residual = 0, Final residual = 0, No Iterations 0
DILUPBiCGStab:  Solving for k, Initial residual = 0.00807242, Final residual = 0.000146448, No Iterations 1
ExecutionTime = 0.19 s  ClockTime = 0 s

Time = 12

DILUPBiCGStab:  Solving for Ux, Initial residual = 0.564746, Final residual = 0.00769671, No Iterations 1
DILUPBiCGStab:  Solving for Uy, Initial residual = 0.171614, Final residual = 0.00459869, No Iterations 1
DILUPBiCGStab:  Solving for Uz, Initial residual = 0.104374, Final residual = 0.00295837, No Iterations 1
DILUPBiCGStab:  Solving for e, Initial residual = 0.031664, Final residual = 0.000297302, No Iterations 1
DICPCG:  Solving for p_rgh, Initial residual = 0.329991, Final residual = 0.00275193, No Iterations 88
time step continuity errors : sum local = 11.8303, global = 0.234108, cumulative = -2.23075
DILUPBiCGStab:  Solving for epsilon, Initial residual = 0, Final residual = 0, No Iterations 0
DILUPBiCGStab:  Solving for k, Initial residual = 0.00619416, Final residual = 0.000110103, No Iterations 1
ExecutionTime = 0.21 s  ClockTime = 0 s

Time = 13

DILUPBiCGStab:  Solving for Ux, Initial residual = 0.641977, Final residual = 0.0102185, No Iterations 1
DILUPBiCGStab:  Solving for Uy, Initial residual = 0.179151, Final residual = 0.00498089, No Iterations 1
DILUPBiCGStab:  Solving for Uz, Initial residual = 0.0924192, Final residual = 0.0026572, No Iterations 1
DILUPBiCGStab:  Solving for e, Initial residual = 0.0296676, Final residual = 0.000277185, No Iterations 1
DICPCG:  Solving for p_rgh, Initial residual = 0.227515, Final residual = 0.00214827, No Iterations 79
time step continuity errors : sum local = 9.67465, global = 0.745864, cumulative = -1.48489
DILUPBiCGStab:  Solving for epsilon, Initial residual = 0, Final residual = 0, No Iterations 0
DILUPBiCGStab:  Solving for k, Initial residual = 0.00469004, Final residual = 8.13411e-05, No Iterations 1
ExecutionTime = 0.21 s  ClockTime = 0 s

Time = 14

DILUPBiCGStab:  Solving for Ux, Initial residual = 0.305299, Final residual = 0.0060868, No Iterations 1
DILUPBiCGStab:  Solving for Uy, Initial residual = 0.166096, Final residual = 0.00427357, No Iterations 1
DILUPBiCGStab:  Solving for Uz, Initial residual = 0.0817679, Final residual = 0.00233817, No Iterations 1
DILUPBiCGStab:  Solving for e, Initial residual = 0.0279499, Final residual = 0.0002596, No Iterations 1
DICPCG:  Solving for p_rgh, Initial residual = 0.408239, Final residual = 0.00241769, No Iterations 88
time step continuity errors : sum local = 6.83577, global = -0.0258249, cumulative = -1.51071
DILUPBiCGStab:  Solving for epsilon, Initial residual = 0, Final residual = 0, No Iterations 0
DILUPBiCGStab:  Solving for k, Initial residual = 0.00381555, Final residual = 6.5606e-05, No Iterations 1
ExecutionTime = 0.22 s  ClockTime = 0 s

Time = 15

DILUPBiCGStab:  Solving for Ux, Initial residual = 0.261149, Final residual = 0.00451826, No Iterations 1
DILUPBiCGStab:  Solving for Uy, Initial residual = 0.131442, Final residual = 0.00312903, No Iterations 1
DILUPBiCGStab:  Solving for Uz, Initial residual = 0.0737037, Final residual = 0.00212204, No Iterations 1
DILUPBiCGStab:  Solving for e, Initial residual = 0.0264786, Final residual = 0.000242398, No Iterations 1
DICPCG:  Solving for p_rgh, Initial residual = 0.486029, Final residual = 0.00352682, No Iterations 88
time step continuity errors : sum local = 8.2502, global = -0.0664829, cumulative = -1.5772
DILUPBiCGStab:  Solving for epsilon, Initial residual = 0, Final residual = 0, No Iterations 0
DILUPBiCGStab:  Solving for k, Initial residual = 0.00329812, Final residual = 5.71125e-05, No Iterations 1
ExecutionTime = 0.22 s  ClockTime = 0 s

Time = 16

DILUPBiCGStab:  Solving for Ux, Initial residual = 0.416107, Final residual = 0.00859193, No Iterations 1
DILUPBiCGStab:  Solving for Uy, Initial residual = 0.102564, Final residual = 0.00267867, No Iterations 1
DILUPBiCGStab:  Solving for Uz, Initial residual = 0.0683528, Final residual = 0.00199514, No Iterations 1
DILUPBiCGStab:  Solving for e, Initial residual = 0.0251847, Final residual = 0.000228085, No Iterations 1
DICPCG:  Solving for p_rgh, Initial residual = 0.357358, Final residual = 0.00281107, No Iterations 89
time step continuity errors : sum local = 7.07565, global = 0.000767946, cumulative = -1.57643
DILUPBiCGStab:  Solving for epsilon, Initial residual = 0, Final residual = 0, No Iterations 0
DILUPBiCGStab:  Solving for k, Initial residual = 0.00291161, Final residual = 5.14457e-05, No Iterations 1
ExecutionTime = 0.23 s  ClockTime = 0 s

Time = 17

DILUPBiCGStab:  Solving for Ux, Initial residual = 0.209121, Final residual = 0.00545588, No Iterations 1
DILUPBiCGStab:  Solving for Uy, Initial residual = 0.0976381, Final residual = 0.00268513, No Iterations 1
DILUPBiCGStab:  Solving for Uz, Initial residual = 0.0639696, Final residual = 0.0019031, No Iterations 1
DILUPBiCGStab:  Solving for e, Initial residual = 0.0240555, Final residual = 0.000221466, No Iterations 1
DICPCG:  Solving for p_rgh, Initial residual = 0.448768, Final residual = 0.00374492, No Iterations 89
time step continuity errors : sum local = 5.56553, global = -0.0492993, cumulative = -1.62573
DILUPBiCGStab:  Solving for epsilon, Initial residual = 0, Final residual = 0, No Iterations 0
DILUPBiCGStab:  Solving for k, Initial residual = 0.00243758, Final residual = 4.21516e-05, No Iterations 1
ExecutionTime = 0.24 s  ClockTime = 0 s

Time = 18

DILUPBiCGStab:  Solving for Ux, Initial residual = 0.204658, Final residual = 0.00365196, No Iterations 1
DILUPBiCGStab:  Solving for Uy, Initial residual = 0.0957116, Final residual = 0.00244441, No Iterations 1
DILUPBiCGStab:  Solving for Uz, Initial residual = 0.0591808, Final residual = 0.00181572, No Iterations 1
DILUPBiCGStab:  Solving for e, Initial residual = 0.0230571, Final residual = 0.000218025, No Iterations 1
DICPCG:  Solving for p_rgh, Initial residual = 0.265063, Final residual = 0.00162011, No Iterations 90
time step continuity errors : sum local = 3.56255, global = -0.00560232, cumulative = -1.63133
DILUPBiCGStab:  Solving for epsilon, Initial residual = 0, Final residual = 0, No Iterations 0
DILUPBiCGStab:  Solving for k, Initial residual = 0.00199333, Final residual = 3.49152e-05, No Iterations 1
ExecutionTime = 0.24 s  ClockTime = 0 s

Time = 19

DILUPBiCGStab:  Solving for Ux, Initial residual = 0.174651, Final residual = 0.00362823, No Iterations 1
DILUPBiCGStab:  Solving for Uy, Initial residual = 0.0829541, Final residual = 0.00198216, No Iterations 1
DILUPBiCGStab:  Solving for Uz, Initial residual = 0.0538611, Final residual = 0.00168581, No Iterations 1
DILUPBiCGStab:  Solving for e, Initial residual = 0.0221662, Final residual = 0.000214396, No Iterations 1
DICPCG:  Solving for p_rgh, Initial residual = 0.257175, Final residual = 0.00151402, No Iterations 88
time step continuity errors : sum local = 3.38777, global = 0.027348, cumulative = -1.60398
DILUPBiCGStab:  Solving for epsilon, Initial residual = 0, Final residual = 0, No Iterations 0
DILUPBiCGStab:  Solving for k, Initial residual = 0.00163055, Final residual = 2.91986e-05, No Iterations 1
ExecutionTime = 0.25 s  ClockTime = 0 s

Time = 20

DILUPBiCGStab:  Solving for Ux, Initial residual = 0.0609972, Final residual = 0.00162919, No Iterations 1
DILUPBiCGStab:  Solving for Uy, Initial residual = 0.0684663, Final residual = 0.0016737, No Iterations 1
DILUPBiCGStab:  Solving for Uz, Initial residual = 0.0485145, Final residual = 0.00153373, No Iterations 1
DILUPBiCGStab:  Solving for e, Initial residual = 0.0213652, Final residual = 0.000209038, No Iterations 1
DICPCG:  Solving for p_rgh, Initial residual = 0.322069, Final residual = 0.00171816, No Iterations 88
time step continuity errors : sum local = 2.66348, global = 0.0261385, cumulative = -1.57784
DILUPBiCGStab:  Solving for epsilon, Initial residual = 0, Final residual = 0, No Iterations 0
DILUPBiCGStab:  Solving for k, Initial residual = 0.00143501, Final residual = 2.63323e-05, No Iterations 1
ExecutionTime = 0.25 s  ClockTime = 0 s

Time = 21

DILUPBiCGStab:  Solving for Ux, Initial residual = 0.139226, Final residual = 0.00313624, No Iterations 1
DILUPBiCGStab:  Solving for Uy, Initial residual = 0.0599082, Final residual = 0.00160334, No Iterations 1
DILUPBiCGStab:  Solving for Uz, Initial residual = 0.0439098, Final residual = 0.00139961, No Iterations 1
DILUPBiCGStab:  Solving for e, Initial residual = 0.0206402, Final residual = 0.000202958, No Iterations 1
DICPCG:  Solving for p_rgh, Initial residual = 0.275579, Final residual = 0.00256695, No Iterations 88
time step continuity errors : sum local = 3.92653, global = 0.0315077, cumulative = -1.54634
DILUPBiCGStab:  Solving for epsilon, Initial residual = 0, Final residual = 0, No Iterations 0
DILUPBiCGStab:  Solving for k, Initial residual = 0.00134945, Final residual = 2.56003e-05, No Iterations 1
ExecutionTime = 0.26 s  ClockTime = 0 s

Time = 22

DILUPBiCGStab:  Solving for Ux, Initial residual = 0.204923, Final residual = 0.00524593, No Iterations 1
DILUPBiCGStab:  Solving for Uy, Initial residual = 0.0510644, Final residual = 0.00137082, No Iterations 1
DILUPBiCGStab:  Solving for Uz, Initial residual = 0.0401499, Final residual = 0.00128654, No Iterations 1
DILUPBiCGStab:  Solving for e, Initial residual = 0.0199886, Final residual = 0.000196273, No Iterations 1
DICPCG:  Solving for p_rgh, Initial residual = 0.208333, Final residual = 0.00115996, No Iterations 90
time step continuity errors : sum local = 2.01274, global = 0.00576438, cumulative = -1.54057
DILUPBiCGStab:  Solving for epsilon, Initial residual = 0, Final residual = 0, No Iterations 0
DILUPBiCGStab:  Solving for k, Initial residual = 0.00127822, Final residual = 2.45023e-05, No Iterations 1
ExecutionTime = 0.26 s  ClockTime = 0 s

Time = 23

DILUPBiCGStab:  Solving for Ux, Initial residual = 0.164457, Final residual = 0.00466252, No Iterations 1
DILUPBiCGStab:  Solving for Uy, Initial residual = 0.0430495, Final residual = 0.00106278, No Iterations 1
DILUPBiCGStab:  Solving for Uz, Initial residual = 0.0367367, Final residual = 0.00118585, No Iterations 1
DILUPBiCGStab:  Solving for e, Initial residual = 0.0194075, Final residual = 0.000190152, No Iterations 1
DICPCG:  Solving for p_rgh, Initial residual = 0.197816, Final residual = 0.00127958, No Iterations 90
time step continuity errors : sum local = 1.87863, global = 0.00594187, cumulative = -1.53463
DILUPBiCGStab:  Solving for epsilon, Initial residual = 0, Final residual = 0, No Iterations 0
DILUPBiCGStab:  Solving for k, Initial residual = 0.00117229, Final residual = 2.22168e-05, No Iterations 1
ExecutionTime = 0.27 s  ClockTime = 0 s

Time = 24

DILUPBiCGStab:  Solving for Ux, Initial residual = 0.0793024, Final residual = 0.00252922, No Iterations 1
DILUPBiCGStab:  Solving for Uy, Initial residual = 0.039242, Final residual = 0.000997135, No Iterations 1
DILUPBiCGStab:  Solving for Uz, Initial residual = 0.0335791, Final residual = 0.0010944, No Iterations 1
DILUPBiCGStab:  Solving for e, Initial residual = 0.0188983, Final residual = 0.000184969, No Iterations 1
DICPCG:  Solving for p_rgh, Initial residual = 0.238403, Final residual = 0.00128011, No Iterations 90
time step continuity errors : sum local = 1.38784, global = 0.000895421, cumulative = -1.53373
DILUPBiCGStab:  Solving for epsilon, Initial residual = 0, Final residual = 0, No Iterations 0
DILUPBiCGStab:  Solving for k, Initial residual = 0.0010617, Final residual = 2.00672e-05, No Iterations 1
ExecutionTime = 0.28 s  ClockTime = 0 s

Time = 25

DILUPBiCGStab:  Solving for Ux, Initial residual = 0.0577334, Final residual = 0.00153292, No Iterations 1
DILUPBiCGStab:  Solving for Uy, Initial residual = 0.0349146, Final residual = 0.000954256, No Iterations 1
DILUPBiCGStab:  Solving for Uz, Initial residual = 0.0306879, Final residual = 0.00100805, No Iterations 1
DILUPBiCGStab:  Solving for e, Initial residual = 0.0184505, Final residual = 0.000180552, No Iterations 1
DICPCG:  Solving for p_rgh, Initial residual = 0.227628, Final residual = 0.00225423, No Iterations 87
time step continuity errors : sum local = 2.44436, global = -0.0172838, cumulative = -1.55102
DILUPBiCGStab:  Solving for epsilon, Initial residual = 0, Final residual = 0, No Iterations 0
DILUPBiCGStab:  Solving for k, Initial residual = 0.000951664, Final residual = 1.78729e-05, No Iterations 1
ExecutionTime = 0.28 s  ClockTime = 0 s

Time = 26

DILUPBiCGStab:  Solving for Ux, Initial residual = 0.0950395, Final residual = 0.00228535, No Iterations 1
DILUPBiCGStab:  Solving for Uy, Initial residual = 0.0301393, Final residual = 0.000815373, No Iterations 1
DILUPBiCGStab:  Solving for Uz, Initial residual = 0.0281268, Final residual = 0.000928481, No Iterations 1
DILUPBiCGStab:  Solving for e, Initial residual = 0.0180616, Final residual = 0.000176345, No Iterations 1
DICPCG:  Solving for p_rgh, Initial residual = 0.227872, Final residual = 0.00129134, No Iterations 90
time step continuity errors : sum local = 1.27204, global = -0.00272314, cumulative = -1.55374
DILUPBiCGStab:  Solving for epsilon, Initial residual = 0, Final residual = 0, No Iterations 0
DILUPBiCGStab:  Solving for k, Initial residual = 0.000861597, Final residual = 1.62581e-05, No Iterations 1
ExecutionTime = 0.29 s  ClockTime = 0 s

Time = 27

DILUPBiCGStab:  Solving for Ux, Initial residual = 0.128417, Final residual = 0.00333171, No Iterations 1
DILUPBiCGStab:  Solving for Uy, Initial residual = 0.0262479, Final residual = 0.00070325, No Iterations 1
DILUPBiCGStab:  Solving for Uz, Initial residual = 0.0260253, Final residual = 0.000855973, No Iterations 1
DILUPBiCGStab:  Solving for e, Initial residual = 0.017721, Final residual = 0.000172327, No Iterations 1
DICPCG:  Solving for p_rgh, Initial residual = 0.168624, Final residual = 0.0009127, No Iterations 90
time step continuity errors : sum local = 1.00193, global = 4.70708e-05, cumulative = -1.55369
DILUPBiCGStab:  Solving for epsilon, Initial residual = 0, Final residual = 0, No Iterations 0
DILUPBiCGStab:  Solving for k, Initial residual = 0.000788747, Final residual = 1.49223e-05, No Iterations 1
ExecutionTime = 0.29 s  ClockTime = 0 s

Time = 28

DILUPBiCGStab:  Solving for Ux, Initial residual = 0.139346, Final residual = 0.00399541, No Iterations 1
DILUPBiCGStab:  Solving for Uy, Initial residual = 0.0242185, Final residual = 0.000664664, No Iterations 1
DILUPBiCGStab:  Solving for Uz, Initial residual = 0.0242368, Final residual = 0.000790363, No Iterations 1
DILUPBiCGStab:  Solving for e, Initial residual = 0.0174215, Final residual = 0.000168175, No Iterations 1
DICPCG:  Solving for p_rgh, Initial residual = 0.138462, Final residual = 0.00126335, No Iterations 88
time step continuity errors : sum local = 1.43819, global = 0.00159319, cumulative = -1.5521
DILUPBiCGStab:  Solving for epsilon, Initial residual = 0, Final residual = 0, No Iterations 0
DILUPBiCGStab:  Solving for k, Initial residual = 0.000718588, Final residual = 1.36173e-05, No Iterations 1
ExecutionTime = 0.3 s  ClockTime = 0 s

Time = 29

DILUPBiCGStab:  Solving for Ux, Initial residual = 0.121119, Final residual = 0.00376393, No Iterations 1
DILUPBiCGStab:  Solving for Uy, Initial residual = 0.0210094, Final residual = 0.000597466, No Iterations 1
DILUPBiCGStab:  Solving for Uz, Initial residual = 0.0226943, Final residual = 0.000733682, No Iterations 1
DILUPBiCGStab:  Solving for e, Initial residual = 0.0171666, Final residual = 0.000164116, No Iterations 1
DICPCG:  Solving for p_rgh, Initial residual = 0.133941, Final residual = 0.00131779, No Iterations 89
time step continuity errors : sum local = 1.42285, global = -0.0141231, cumulative = -1.56622
DILUPBiCGStab:  Solving for epsilon, Initial residual = 0, Final residual = 0, No Iterations 0
DILUPBiCGStab:  Solving for k, Initial residual = 0.000638145, Final residual = 1.19598e-05, No Iterations 1
ExecutionTime = 0.3 s  ClockTime = 0 s

Time = 30

DILUPBiCGStab:  Solving for Ux, Initial residual = 0.0981444, Final residual = 0.00307849, No Iterations 1
DILUPBiCGStab:  Solving for Uy, Initial residual = 0.0186863, Final residual = 0.000510955, No Iterations 1
DILUPBiCGStab:  Solving for Uz, Initial residual = 0.0213992, Final residual = 0.000682881, No Iterations 1
DILUPBiCGStab:  Solving for e, Initial residual = 0.0169538, Final residual = 0.000160396, No Iterations 1
DICPCG:  Solving for p_rgh, Initial residual = 0.132101, Final residual = 0.00129032, No Iterations 89
time step continuity errors : sum local = 1.29594, global = -0.00736272, cumulative = -1.57359
DILUPBiCGStab:  Solving for epsilon, Initial residual = 0, Final residual = 0, No Iterations 0
DILUPBiCGStab:  Solving for k, Initial residual = 0.000558285, Final residual = 1.03958e-05, No Iterations 1
ExecutionTime = 0.31 s  ClockTime = 0 s

Time = 31

DILUPBiCGStab:  Solving for Ux, Initial residual = 0.101143, Final residual = 0.00299179, No Iterations 1
DILUPBiCGStab:  Solving for Uy, Initial residual = 0.0173707, Final residual = 0.00045246, No Iterations 1
DILUPBiCGStab:  Solving for Uz, Initial residual = 0.0203636, Final residual = 0.000638378, No Iterations 1
DILUPBiCGStab:  Solving for e, Initial residual = 0.0167781, Final residual = 0.000157001, No Iterations 1
DICPCG:  Solving for p_rgh, Initial residual = 0.120262, Final residual = 0.00067063, No Iterations 90
time step continuity errors : sum local = 0.662399, global = -0.00341632, cumulative = -1.577
DILUPBiCGStab:  Solving for epsilon, Initial residual = 0, Final residual = 0, No Iterations 0
DILUPBiCGStab:  Solving for k, Initial residual = 0.000508466, Final residual = 9.58485e-06, No Iterations 1
ExecutionTime = 0.32 s  ClockTime = 0 s

Time = 32

DILUPBiCGStab:  Solving for Ux, Initial residual = 0.118783, Final residual = 0.00344076, No Iterations 1
DILUPBiCGStab:  Solving for Uy, Initial residual = 0.0166911, Final residual = 0.000433078, No Iterations 1
DILUPBiCGStab:  Solving for Uz, Initial residual = 0.0195361, Final residual = 0.000600889, No Iterations 1
DILUPBiCGStab:  Solving for e, Initial residual = 0.0166446, Final residual = 0.000153933, No Iterations 1
DICPCG:  Solving for p_rgh, Initial residual = 0.104722, Final residual = 0.000587153, No Iterations 90
time step continuity errors : sum local = 0.606091, global = -0.00492644, cumulative = -1.58193
DILUPBiCGStab:  Solving for epsilon, Initial residual = 0, Final residual = 0, No Iterations 0
DILUPBiCGStab:  Solving for k, Initial residual = 0.000454997, Final residual = 8.80457e-06, No Iterations 1
ExecutionTime = 0.32 s  ClockTime = 0 s

Time = 33

DILUPBiCGStab:  Solving for Ux, Initial residual = 0.124907, Final residual = 0.00374617, No Iterations 1
DILUPBiCGStab:  Solving for Uy, Initial residual = 0.0153109, Final residual = 0.000401332, No Iterations 1
DILUPBiCGStab:  Solving for Uz, Initial residual = 0.018899, Final residual = 0.000569754, No Iterations 1
DILUPBiCGStab:  Solving for e, Initial residual = 0.0165467, Final residual = 0.000151019, No Iterations 1
DICPCG:  Solving for p_rgh, Initial residual = 0.0911624, Final residual = 0.000651344, No Iterations 89
time step continuity errors : sum local = 0.704359, global = 0.00202209, cumulative = -1.57991
DILUPBiCGStab:  Solving for epsilon, Initial residual = 0, Final residual = 0, No Iterations 0
DILUPBiCGStab:  Solving for k, Initial residual = 0.000412988, Final residual = 8.21119e-06, No Iterations 1
ExecutionTime = 0.33 s  ClockTime = 0 s

Time = 34

DILUPBiCGStab:  Solving for Ux, Initial residual = 0.107933, Final residual = 0.00341592, No Iterations 1
DILUPBiCGStab:  Solving for Uy, Initial residual = 0.0140366, Final residual = 0.000354261, No Iterations 1
DILUPBiCGStab:  Solving for Uz, Initial residual = 0.0183635, Final residual = 0.000542406, No Iterations 1
DILUPBiCGStab:  Solving for e, Initial residual = 0.0164867, Final residual = 0.000148275, No Iterations 1
DICPCG:  Solving for p_rgh, Initial residual = 0.0809058, Final residual = 0.000563222, No Iterations 89
time step continuity errors : sum local = 0.610709, global = -0.00150835, cumulative = -1.58142
DILUPBiCGStab:  Solving for epsilon, Initial residual = 0, Final residual = 0, No Iterations 0
DILUPBiCGStab:  Solving for k, Initial residual = 0.000363771, Final residual = 7.42583e-06, No Iterations 1
ExecutionTime = 0.33 s  ClockTime = 0 s

Time = 35

DILUPBiCGStab:  Solving for Ux, Initial residual = 0.0773101, Final residual = 0.00258603, No Iterations 1
DILUPBiCGStab:  Solving for Uy, Initial residual = 0.0124074, Final residual = 0.000297653, No Iterations 1
DILUPBiCGStab:  Solving for Uz, Initial residual = 0.0178851, Final residual = 0.000518739, No Iterations 1
DILUPBiCGStab:  Solving for e, Initial residual = 0.0164616, Final residual = 0.000145787, No Iterations 1
DICPCG:  Solving for p_rgh, Initial residual = 0.0772986, Final residual = 0.000710417, No Iterations 88
time step continuity errors : sum local = 0.734763, global = -0.00560395, cumulative = -1.58702
DILUPBiCGStab:  Solving for epsilon, Initial residual = 0, Final residual = 0, No Iterations 0
DILUPBiCGStab:  Solving for k, Initial residual = 0.000318902, Final residual = 6.6361e-06, No Iterations 1
ExecutionTime = 0.34 s  ClockTime = 0 s

Time = 36

DILUPBiCGStab:  Solving for Ux, Initial residual = 0.0537799, Final residual = 0.00177671, No Iterations 1
DILUPBiCGStab:  Solving for Uy, Initial residual = 0.0115076, Final residual = 0.000273079, No Iterations 1
DILUPBiCGStab:  Solving for Uz, Initial residual = 0.0174929, Final residual = 0.000499776, No Iterations 1
DILUPBiCGStab:  Solving for e, Initial residual = 0.0164691, Final residual = 0.000143807, No Iterations 1
DICPCG:  Solving for p_rgh, Initial residual = 0.0760804, Final residual = 0.00067715, No Iterations 89
time step continuity errors : sum local = 0.65755, global = 0.00138471, cumulative = -1.58564
DILUPBiCGStab:  Solving for epsilon, Initial residual = 0, Final residual = 0, No Iterations 0
DILUPBiCGStab:  Solving for k, Initial residual = 0.000276481, Final residual = 5.86868e-06, No Iterations 1
ExecutionTime = 0.35 s  ClockTime = 0 s

Time = 37

DILUPBiCGStab:  Solving for Ux, Initial residual = 0.0495717, Final residual = 0.00142186, No Iterations 1
DILUPBiCGStab:  Solving for Uy, Initial residual = 0.0107926, Final residual = 0.000265412, No Iterations 1
DILUPBiCGStab:  Solving for Uz, Initial residual = 0.0172044, Final residual = 0.000482342, No Iterations 1
DILUPBiCGStab:  Solving for e, Initial residual = 0.0165083, Final residual = 0.000142298, No Iterations 1
DICPCG:  Solving for p_rgh, Initial residual = 0.0726021, Final residual = 0.000638181, No Iterations 67
time step continuity errors : sum local = 0.596751, global = -0.0763547, cumulative = -1.66199
DILUPBiCGStab:  Solving for epsilon, Initial residual = 0, Final residual = 0, No Iterations 0
DILUPBiCGStab:  Solving for k, Initial residual = 0.000242398, Final residual = 5.2121e-06, No Iterations 1
ExecutionTime = 0.35 s  ClockTime = 0 s

Time = 38

DILUPBiCGStab:  Solving for Ux, Initial residual = 0.0488284, Final residual = 0.00130675, No Iterations 1
DILUPBiCGStab:  Solving for Uy, Initial residual = 0.00971865, Final residual = 0.000253326, No Iterations 1
DILUPBiCGStab:  Solving for Uz, Initial residual = 0.0170243, Final residual = 0.00046665, No Iterations 1
DILUPBiCGStab:  Solving for e, Initial residual = 0.0165799, Final residual = 0.000141209, No Iterations 1
DICPCG:  Solving for p_rgh, Initial residual = 0.0657331, Final residual = 0.00044974, No Iterations 90
time step continuity errors : sum local = 0.420108, global = -0.000945641, cumulative = -1.66294
DILUPBiCGStab:  Solving for epsilon, Initial residual = 0, Final residual = 0, No Iterations 0
DILUPBiCGStab:  Solving for k, Initial residual = 0.000217587, Final residual = 4.63638e-06, No Iterations 1
ExecutionTime = 0.36 s  ClockTime = 0 s

Time = 39

DILUPBiCGStab:  Solving for Ux, Initial residual = 0.0454627, Final residual = 0.00128983, No Iterations 1
DILUPBiCGStab:  Solving for Uy, Initial residual = 0.00874207, Final residual = 0.000229267, No Iterations 1
DILUPBiCGStab:  Solving for Uz, Initial residual = 0.0169375, Final residual = 0.000451642, No Iterations 1
DILUPBiCGStab:  Solving for e, Initial residual = 0.0166802, Final residual = 0.000140414, No Iterations 1
DICPCG:  Solving for p_rgh, Initial residual = 0.0581011, Final residual = 0.000557073, No Iterations 90
time step continuity errors : sum local = 0.532623, global = -0.00133821, cumulative = -1.66427
DILUPBiCGStab:  Solving for epsilon, Initial residual = 0, Final residual = 0, No Iterations 0
DILUPBiCGStab:  Solving for k, Initial residual = 0.000196501, Final residual = 4.13381e-06, No Iterations 1
ExecutionTime = 0.36 s  ClockTime = 0 s

Time = 40

DILUPBiCGStab:  Solving for Ux, Initial residual = 0.0381967, Final residual = 0.00119475, No Iterations 1
DILUPBiCGStab:  Solving for Uy, Initial residual = 0.00847059, Final residual = 0.00021358, No Iterations 1
DILUPBiCGStab:  Solving for Uz, Initial residual = 0.0169077, Final residual = 0.000437008, No Iterations 1
DILUPBiCGStab:  Solving for e, Initial residual = 0.0168104, Final residual = 0.000139973, No Iterations 1
DICPCG:  Solving for p_rgh, Initial residual = 0.0523691, Final residual = 0.000511725, No Iterations 90
time step continuity errors : sum local = 0.494413, global = 0.00332875, cumulative = -1.66095
DILUPBiCGStab:  Solving for epsilon, Initial residual = 0, Final residual = 0, No Iterations 0
DILUPBiCGStab:  Solving for k, Initial residual = 0.000176678, Final residual = 3.63677e-06, No Iterations 1
ExecutionTime = 0.37 s  ClockTime = 0 s

Time = 41

DILUPBiCGStab:  Solving for Ux, Initial residual = 0.0316301, Final residual = 0.000993301, No Iterations 1
DILUPBiCGStab:  Solving for Uy, Initial residual = 0.00818383, Final residual = 0.000200859, No Iterations 1
DILUPBiCGStab:  Solving for Uz, Initial residual = 0.0169161, Final residual = 0.000424523, No Iterations 1
DILUPBiCGStab:  Solving for e, Initial residual = 0.0169691, Final residual = 0.000139833, No Iterations 1
DICPCG:  Solving for p_rgh, Initial residual = 0.0484951, Final residual = 0.000411923, No Iterations 90
time step continuity errors : sum local = 0.390968, global = 0.00315182, cumulative = -1.65779
DILUPBiCGStab:  Solving for epsilon, Initial residual = 0, Final residual = 0, No Iterations 0
DILUPBiCGStab:  Solving for k, Initial residual = 0.000160202, Final residual = 3.16522e-06, No Iterations 1
ExecutionTime = 0.38 s  ClockTime = 0 s

Time = 42

DILUPBiCGStab:  Solving for Ux, Initial residual = 0.0301319, Final residual = 0.000782672, No Iterations 1
DILUPBiCGStab:  Solving for Uy, Initial residual = 0.00777063, Final residual = 0.000192082, No Iterations 1
DILUPBiCGStab:  Solving for Uz, Initial residual = 0.0169348, Final residual = 0.000415694, No Iterations 1
DILUPBiCGStab:  Solving for e, Initial residual = 0.0171527, Final residual = 0.000139788, No Iterations 1
DICPCG:  Solving for p_rgh, Initial residual = 0.0451468, Final residual = 0.000429182, No Iterations 90
time step continuity errors : sum local = 0.393047, global = -0.00121267, cumulative = -1.65901
DILUPBiCGStab:  Solving for epsilon, Initial residual = 0, Final residual = 0, No Iterations 0
DILUPBiCGStab:  Solving for k, Initial residual = 0.000146726, Final residual = 2.72659e-06, No Iterations 1
ExecutionTime = 0.38 s  ClockTime = 0 s

Time = 43

DILUPBiCGStab:  Solving for Ux, Initial residual = 0.0319555, Final residual = 0.000651675, No Iterations 1
DILUPBiCGStab:  Solving for Uy, Initial residual = 0.00707262, Final residual = 0.000185794, No Iterations 1
DILUPBiCGStab:  Solving for Uz, Initial residual = 0.0169569, Final residual = 0.000409796, No Iterations 1
DILUPBiCGStab:  Solving for e, Initial residual = 0.0173653, Final residual = 0.000139889, No Iterations 1
DICPCG:  Solving for p_rgh, Initial residual = 0.0418721, Final residual = 0.000206985, No Iterations 89
time step continuity errors : sum local = 0.183886, global = 0.00105594, cumulative = -1.65795
DILUPBiCGStab:  Solving for epsilon, Initial residual = 0, Final residual = 0, No Iterations 0
DILUPBiCGStab:  Solving for k, Initial residual = 0.000136973, Final residual = 2.36476e-06, No Iterations 1
ExecutionTime = 0.39 s  ClockTime = 0 s

Time = 44

DILUPBiCGStab:  Solving for Ux, Initial residual = 0.0326014, Final residual = 0.000612131, No Iterations 1
DILUPBiCGStab:  Solving for Uy, Initial residual = 0.00602731, Final residual = 0.000169145, No Iterations 1
DILUPBiCGStab:  Solving for Uz, Initial residual = 0.0169877, Final residual = 0.000405655, No Iterations 1
DILUPBiCGStab:  Solving for e, Initial residual = 0.0176023, Final residual = 0.000140811, No Iterations 1
DICPCG:  Solving for p_rgh, Initial residual = 0.0385422, Final residual = 0.000284854, No Iterations 90
time step continuity errors : sum local = 0.250859, global = -0.000987218, cumulative = -1.65894
DILUPBiCGStab:  Solving for epsilon, Initial residual = 0, Final residual = 0, No Iterations 0
DILUPBiCGStab:  Solving for k, Initial residual = 0.000128851, Final residual = 2.06032e-06, No Iterations 1
ExecutionTime = 0.39 s  ClockTime = 0 s

Time = 45

DILUPBiCGStab:  Solving for Ux, Initial residual = 0.0309453, Final residual = 0.000589904, No Iterations 1
DILUPBiCGStab:  Solving for Uy, Initial residual = 0.00552807, Final residual = 0.000143921, No Iterations 1
DILUPBiCGStab:  Solving for Uz, Initial residual = 0.0170386, Final residual = 0.000403232, No Iterations 1
DILUPBiCGStab:  Solving for e, Initial residual = 0.0178672, Final residual = 0.000142399, No Iterations 1
DICPCG:  Solving for p_rgh, Initial residual = 0.0346164, Final residual = 0.000310308, No Iterations 90
time step continuity errors : sum local = 0.27552, global = 0.00214787, cumulative = -1.65679
DILUPBiCGStab:  Solving for epsilon, Initial residual = 0, Final residual = 0, No Iterations 0
DILUPBiCGStab:  Solving for k, Initial residual = 0.00012212, Final residual = 1.81657e-06, No Iterations 1
ExecutionTime = 0.4 s  ClockTime = 0 s

Time = 46

DILUPBiCGStab:  Solving for Ux, Initial residual = 0.0279884, Final residual = 0.000570578, No Iterations 1
DILUPBiCGStab:  Solving for Uy, Initial residual = 0.00555282, Final residual = 0.000127542, No Iterations 1
DILUPBiCGStab:  Solving for Uz, Initial residual = 0.0171137, Final residual = 0.000401638, No Iterations 1
DILUPBiCGStab:  Solving for e, Initial residual = 0.0181548, Final residual = 0.000144295, No Iterations 1
DICPCG:  Solving for p_rgh, Initial residual = 0.0313821, Final residual = 0.000295856, No Iterations 70
time step continuity errors : sum local = 0.26494, global = -0.00176085, cumulative = -1.65855
DILUPBiCGStab:  Solving for epsilon, Initial residual = 0, Final residual = 0, No Iterations 0
DILUPBiCGStab:  Solving for k, Initial residual = 0.000117964, Final residual = 1.63797e-06, No Iterations 1
ExecutionTime = 0.4 s  ClockTime = 0 s

Time = 47

DILUPBiCGStab:  Solving for Ux, Initial residual = 0.0258334, Final residual = 0.00051538, No Iterations 1
DILUPBiCGStab:  Solving for Uy, Initial residual = 0.00554719, Final residual = 0.00012594, No Iterations 1
DILUPBiCGStab:  Solving for Uz, Initial residual = 0.0171464, Final residual = 0.000400081, No Iterations 1
DILUPBiCGStab:  Solving for e, Initial residual = 0.0184706, Final residual = 0.000146498, No Iterations 1
DICPCG:  Solving for p_rgh, Initial residual = 0.0285017, Final residual = 0.000267359, No Iterations 91
time step continuity errors : sum local = 0.238817, global = -8.8768e-05, cumulative = -1.65864
DILUPBiCGStab:  Solving for epsilon, Initial residual = 0, Final residual = 0, No Iterations 0
DILUPBiCGStab:  Solving for k, Initial residual = 0.000113117, Final residual = 1.48137e-06, No Iterations 1
ExecutionTime = 0.41 s  ClockTime = 0 s

Time = 48

DILUPBiCGStab:  Solving for Ux, Initial residual = 0.0255802, Final residual = 0.000437165, No Iterations 1
DILUPBiCGStab:  Solving for Uy, Initial residual = 0.00516261, Final residual = 0.000120305, No Iterations 1
DILUPBiCGStab:  Solving for Uz, Initial residual = 0.0171172, Final residual = 0.000398361, No Iterations 1
DILUPBiCGStab:  Solving for e, Initial residual = 0.0188082, Final residual = 0.00014889, No Iterations 1
DICPCG:  Solving for p_rgh, Initial residual = 0.0263556, Final residual = 0.000234837, No Iterations 88
time step continuity errors : sum local = 0.20684, global = -0.000594705, cumulative = -1.65923
DILUPBiCGStab:  Solving for epsilon, Initial residual = 0, Final residual = 0, No Iterations 0
DILUPBiCGStab:  Solving for k, Initial residual = 0.000108136, Final residual = 1.33353e-06, No Iterations 1
ExecutionTime = 0.42 s  ClockTime = 0 s

Time = 49

DILUPBiCGStab:  Solving for Ux, Initial residual = 0.0257089, Final residual = 0.00039072, No Iterations 1
DILUPBiCGStab:  Solving for Uy, Initial residual = 0.00455423, Final residual = 0.000107807, No Iterations 1
DILUPBiCGStab:  Solving for Uz, Initial residual = 0.0170406, Final residual = 0.000397339, No Iterations 1
DILUPBiCGStab:  Solving for e, Initial residual = 0.0191705, Final residual = 0.000151465, No Iterations 1
DICPCG:  Solving for p_rgh, Initial residual = 0.0252359, Final residual = 0.000173234, No Iterations 91
time step continuity errors : sum local = 0.150134, global = -7.10872e-05, cumulative = -1.6593
DILUPBiCGStab:  Solving for epsilon, Initial residual = 0, Final residual = 0, No Iterations 0
DILUPBiCGStab:  Solving for k, Initial residual = 0.00010348, Final residual = 1.21096e-06, No Iterations 1
ExecutionTime = 0.42 s  ClockTime = 0 s

Time = 50

DILUPBiCGStab:  Solving for Ux, Initial residual = 0.0252584, Final residual = 0.000374879, No Iterations 1
DILUPBiCGStab:  Solving for Uy, Initial residual = 0.00386338, Final residual = 9.3412e-05, No Iterations 1
DILUPBiCGStab:  Solving for Uz, Initial residual = 0.0169131, Final residual = 0.000397054, No Iterations 1
DILUPBiCGStab:  Solving for e, Initial residual = 0.019552, Final residual = 0.000154218, No Iterations 1
DICPCG:  Solving for p_rgh, Initial residual = 0.023824, Final residual = 0.000204456, No Iterations 73
time step continuity errors : sum local = 0.175673, global = -0.0239046, cumulative = -1.68321
DILUPBiCGStab:  Solving for epsilon, Initial residual = 0, Final residual = 0, No Iterations 0
DILUPBiCGStab:  Solving for k, Initial residual = 9.98485e-05, Final residual = 1.11842e-06, No Iterations 1
ExecutionTime = 0.43 s  ClockTime = 0 s

Time = 51

DILUPBiCGStab:  Solving for Ux, Initial residual = 0.0237789, Final residual = 0.000370622, No Iterations 1
DILUPBiCGStab:  Solving for Uy, Initial residual = 0.00338425, Final residual = 7.80506e-05, No Iterations 1
DILUPBiCGStab:  Solving for Uz, Initial residual = 0.0167258, Final residual = 0.000397837, No Iterations 1
DILUPBiCGStab:  Solving for e, Initial residual = 0.0199554, Final residual = 0.000157194, No Iterations 1
DICPCG:  Solving for p_rgh, Initial residual = 0.0224363, Final residual = 0.000177063, No Iterations 89
time step continuity errors : sum local = 0.152154, global = -0.000470693, cumulative = -1.68368
DILUPBiCGStab:  Solving for epsilon, Initial residual = 0, Final residual = 0, No Iterations 0
DILUPBiCGStab:  Solving for k, Initial residual = 9.68024e-05, Final residual = 1.06178e-06, No Iterations 1
ExecutionTime = 0.43 s  ClockTime = 0 s

Time = 52

DILUPBiCGStab:  Solving for Ux, Initial residual = 0.0205411, Final residual = 0.000344858, No Iterations 1
DILUPBiCGStab:  Solving for Uy, Initial residual = 0.00345683, Final residual = 7.64857e-05, No Iterations 1
DILUPBiCGStab:  Solving for Uz, Initial residual = 0.0164875, Final residual = 0.000400308, No Iterations 1
DILUPBiCGStab:  Solving for e, Initial residual = 0.0203762, Final residual = 0.000160345, No Iterations 1
DICPCG:  Solving for p_rgh, Initial residual = 0.0207617, Final residual = 0.00020341, No Iterations 88
time step continuity errors : sum local = 0.175802, global = 0.000942356, cumulative = -1.68274
DILUPBiCGStab:  Solving for epsilon, Initial residual = 0, Final residual = 0, No Iterations 0
DILUPBiCGStab:  Solving for k, Initial residual = 9.50821e-05, Final residual = 1.03835e-06, No Iterations 1
ExecutionTime = 0.44 s  ClockTime = 0 s

Time = 53

DILUPBiCGStab:  Solving for Ux, Initial residual = 0.0176897, Final residual = 0.000320164, No Iterations 1
DILUPBiCGStab:  Solving for Uy, Initial residual = 0.00351695, Final residual = 7.96814e-05, No Iterations 1
DILUPBiCGStab:  Solving for Uz, Initial residual = 0.0162149, Final residual = 0.000403773, No Iterations 1
DILUPBiCGStab:  Solving for e, Initial residual = 0.020813, Final residual = 0.000163718, No Iterations 1
DICPCG:  Solving for p_rgh, Initial residual = 0.0188276, Final residual = 0.000163341, No Iterations 74
time step continuity errors : sum local = 0.141607, global = 0.0186944, cumulative = -1.66404
DILUPBiCGStab:  Solving for epsilon, Initial residual = 0, Final residual = 0, No Iterations 0
DILUPBiCGStab:  Solving for k, Initial residual = 9.41059e-05, Final residual = 1.02167e-06, No Iterations 1
ExecutionTime = 0.45 s  ClockTime = 0 s

Time = 54

DILUPBiCGStab:  Solving for Ux, Initial residual = 0.0153068, Final residual = 0.000276866, No Iterations 1
DILUPBiCGStab:  Solving for Uy, Initial residual = 0.00335237, Final residual = 7.6698e-05, No Iterations 1
DILUPBiCGStab:  Solving for Uz, Initial residual = 0.0159193, Final residual = 0.000408414, No Iterations 1
DILUPBiCGStab:  Solving for e, Initial residual = 0.021267, Final residual = 0.000167366, No Iterations 1
DICPCG:  Solving for p_rgh, Initial residual = 0.0177472, Final residual = 0.000169106, No Iterations 90
time step continuity errors : sum local = 0.146336, global = 0.000371843, cumulative = -1.66367
DILUPBiCGStab:  Solving for epsilon, Initial residual = 0, Final residual = 0, No Iterations 0
DILUPBiCGStab:  Solving for k, Initial residual = 9.37997e-05, Final residual = 1.00331e-06, No Iterations 1
ExecutionTime = 0.45 s  ClockTime = 0 s

Time = 55

DILUPBiCGStab:  Solving for Ux, Initial residual = 0.0140199, Final residual = 0.000240439, No Iterations 1
DILUPBiCGStab:  Solving for Uy, Initial residual = 0.003018, Final residual = 6.61228e-05, No Iterations 1
DILUPBiCGStab:  Solving for Uz, Initial residual = 0.0156167, Final residual = 0.00041364, No Iterations 1
DILUPBiCGStab:  Solving for e, Initial residual = 0.021729, Final residual = 0.000171218, No Iterations 1
DICPCG:  Solving for p_rgh, Initial residual = 0.0169195, Final residual = 0.000164596, No Iterations 90
time step continuity errors : sum local = 0.141505, global = -0.000856073, cumulative = -1.66453
DILUPBiCGStab:  Solving for epsilon, Initial residual = 0, Final residual = 0, No Iterations 0
DILUPBiCGStab:  Solving for k, Initial residual = 9.42211e-05, Final residual = 9.81576e-07, No Iterations 1
ExecutionTime = 0.46 s  ClockTime = 0 s

Time = 56

DILUPBiCGStab:  Solving for Ux, Initial residual = 0.0134719, Final residual = 0.000234323, No Iterations 1
DILUPBiCGStab:  Solving for Uy, Initial residual = 0.00256821, Final residual = 5.13821e-05, No Iterations 1
DILUPBiCGStab:  Solving for Uz, Initial residual = 0.0153264, Final residual = 0.000418511, No Iterations 1
DILUPBiCGStab:  Solving for e, Initial residual = 0.0222051, Final residual = 0.000175321, No Iterations 1
DICPCG:  Solving for p_rgh, Initial residual = 0.0162443, Final residual = 0.000161033, No Iterations 70
time step continuity errors : sum local = 0.137762, global = -0.00565268, cumulative = -1.67018
DILUPBiCGStab:  Solving for epsilon, Initial residual = 0, Final residual = 0, No Iterations 0
DILUPBiCGStab:  Solving for k, Initial residual = 9.52251e-05, Final residual = 9.71917e-07, No Iterations 1
ExecutionTime = 0.46 s  ClockTime = 0 s

Time = 57

DILUPBiCGStab:  Solving for Ux, Initial residual = 0.0125183, Final residual = 0.000238062, No Iterations 1
DILUPBiCGStab:  Solving for Uy, Initial residual = 0.0021837, Final residual = 4.05183e-05, No Iterations 1
DILUPBiCGStab:  Solving for Uz, Initial residual = 0.0150572, Final residual = 0.000422447, No Iterations 1
DILUPBiCGStab:  Solving for e, Initial residual = 0.0226843, Final residual = 0.000179607, No Iterations 1
DICPCG:  Solving for p_rgh, Initial residual = 0.0154651, Final residual = 9.53619e-05, No Iterations 92
time step continuity errors : sum local = 0.0815701, global = 0.000156473, cumulative = -1.67002
DILUPBiCGStab:  Solving for epsilon, Initial residual = 0, Final residual = 0, No Iterations 0
DILUPBiCGStab:  Solving for k, Initial residual = 9.62535e-05, Final residual = 9.49757e-07, No Iterations 1
ExecutionTime = 0.47 s  ClockTime = 0 s

Time = 58

DILUPBiCGStab:  Solving for Ux, Initial residual = 0.0108476, Final residual = 0.000233464, No Iterations 1
DILUPBiCGStab:  Solving for Uy, Initial residual = 0.00215575, Final residual = 4.07452e-05, No Iterations 1
DILUPBiCGStab:  Solving for Uz, Initial residual = 0.0148219, Final residual = 0.000424844, No Iterations 1
DILUPBiCGStab:  Solving for e, Initial residual = 0.0231752, Final residual = 0.000184193, No Iterations 1
DICPCG:  Solving for p_rgh, Initial residual = 0.0143944, Final residual = 0.000125944, No Iterations 88
time step continuity errors : sum local = 0.108188, global = 0.000908457, cumulative = -1.66912
DILUPBiCGStab:  Solving for epsilon, Initial residual = 0, Final residual = 0, No Iterations 0
DILUPBiCGStab:  Solving for k, Initial residual = 9.56196e-05, Final residual = 9.24753e-07, No Iterations 1
ExecutionTime = 0.47 s  ClockTime = 0 s

Time = 59

DILUPBiCGStab:  Solving for Ux, Initial residual = 0.00941473, Final residual = 0.000218014, No Iterations 1
DILUPBiCGStab:  Solving for Uy, Initial residual = 0.00212107, Final residual = 4.44577e-05, No Iterations 1
DILUPBiCGStab:  Solving for Uz, Initial residual = 0.0146201, Final residual = 0.000425738, No Iterations 1
DILUPBiCGStab:  Solving for e, Initial residual = 0.0236688, Final residual = 0.000189027, No Iterations 1
DICPCG:  Solving for p_rgh, Initial residual = 0.0134919, Final residual = 9.2652e-05, No Iterations 91
time step continuity errors : sum local = 0.0799103, global = 0.000477498, cumulative = -1.66864
DILUPBiCGStab:  Solving for epsilon, Initial residual = 0, Final residual = 0, No Iterations 0
DILUPBiCGStab:  Solving for k, Initial residual = 9.29831e-05, Final residual = 8.96985e-07, No Iterations 1
ExecutionTime = 0.48 s  ClockTime = 0 s

Time = 60

DILUPBiCGStab:  Solving for Ux, Initial residual = 0.00799955, Final residual = 0.000186206, No Iterations 1
DILUPBiCGStab:  Solving for Uy, Initial residual = 0.00195525, Final residual = 4.35261e-05, No Iterations 1
DILUPBiCGStab:  Solving for Uz, Initial residual = 0.0144429, Final residual = 0.000425338, No Iterations 1
DILUPBiCGStab:  Solving for e, Initial residual = 0.0241751, Final residual = 0.00019422, No Iterations 1
DICPCG:  Solving for p_rgh, Initial residual = 0.0128486, Final residual = 0.000115863, No Iterations 89
time step continuity errors : sum local = 0.100029, global = 0.000490773, cumulative = -1.66815
DILUPBiCGStab:  Solving for epsilon, Initial residual = 0, Final residual = 0, No Iterations 0
DILUPBiCGStab:  Solving for k, Initial residual = 8.92353e-05, Final residual = 8.68255e-07, No Iterations 1
ExecutionTime = 0.49 s  ClockTime = 0 s

Time = 61

DILUPBiCGStab:  Solving for Ux, Initial residual = 0.00745039, Final residual = 0.000162062, No Iterations 1
DILUPBiCGStab:  Solving for Uy, Initial residual = 0.00173368, Final residual = 3.9956e-05, No Iterations 1
DILUPBiCGStab:  Solving for Uz, Initial residual = 0.0142818, Final residual = 0.000423838, No Iterations 1
DILUPBiCGStab:  Solving for e, Initial residual = 0.0246904, Final residual = 0.000199758, No Iterations 1
DICPCG:  Solving for p_rgh, Initial residual = 0.0123863, Final residual = 7.86766e-05, No Iterations 90
time step continuity errors : sum local = 0.0677736, global = -3.18509e-05, cumulative = -1.66818
DILUPBiCGStab:  Solving for epsilon, Initial residual = 0, Final residual = 0, No Iterations 0
DILUPBiCGStab:  Solving for k, Initial residual = 8.44707e-05, Final residual = 8.35237e-07, No Iterations 1
ExecutionTime = 0.49 s  ClockTime = 0 s

Time = 62

DILUPBiCGStab:  Solving for Ux, Initial residual = 0.00761184, Final residual = 0.000160722, No Iterations 1
DILUPBiCGStab:  Solving for Uy, Initial residual = 0.0014367, Final residual = 3.40287e-05, No Iterations 1
DILUPBiCGStab:  Solving for Uz, Initial residual = 0.0141224, Final residual = 0.000420877, No Iterations 1
DILUPBiCGStab:  Solving for e, Initial residual = 0.0252217, Final residual = 0.000205765, No Iterations 1
DICPCG:  Solving for p_rgh, Initial residual = 0.0120377, Final residual = 9.20299e-05, No Iterations 90
time step continuity errors : sum local = 0.0789829, global = -0.000272907, cumulative = -1.66845
DILUPBiCGStab:  Solving for epsilon, Initial residual = 0, Final residual = 0, No Iterations 0
DILUPBiCGStab:  Solving for k, Initial residual = 7.90847e-05, Final residual = 7.98794e-07, No Iterations 1
ExecutionTime = 0.5 s  ClockTime = 0 s

Time = 63

DILUPBiCGStab:  Solving for Ux, Initial residual = 0.00763091, Final residual = 0.000166972, No Iterations 1
DILUPBiCGStab:  Solving for Uy, Initial residual = 0.00124162, Final residual = 2.91625e-05, No Iterations 1
DILUPBiCGStab:  Solving for Uz, Initial residual = 0.013951, Final residual = 0.000415683, No Iterations 1
DILUPBiCGStab:  Solving for e, Initial residual = 0.0257734, Final residual = 0.000212146, No Iterations 1
DICPCG:  Solving for p_rgh, Initial residual = 0.0114414, Final residual = 0.000104628, No Iterations 48
time step continuity errors : sum local = 0.0895418, global = 0.00674678, cumulative = -1.66171
DILUPBiCGStab:  Solving for epsilon, Initial residual = 0, Final residual = 0, No Iterations 0
DILUPBiCGStab:  Solving for k, Initial residual = 7.36246e-05, Final residual = 7.63245e-07, No Iterations 1
ExecutionTime = 0.5 s  ClockTime = 0 s

Time = 64

DILUPBiCGStab:  Solving for Ux, Initial residual = 0.00709331, Final residual = 0.000163791, No Iterations 1
DILUPBiCGStab:  Solving for Uy, Initial residual = 0.00121019, Final residual = 2.8642e-05, No Iterations 1
DILUPBiCGStab:  Solving for Uz, Initial residual = 0.0137607, Final residual = 0.000407937, No Iterations 1
DILUPBiCGStab:  Solving for e, Initial residual = 0.0263472, Final residual = 0.000218744, No Iterations 1
DICPCG:  Solving for p_rgh, Initial residual = 0.0109869, Final residual = 9.36272e-05, No Iterations 88
time step continuity errors : sum local = 0.0800406, global = -0.000631406, cumulative = -1.66234
DILUPBiCGStab:  Solving for epsilon, Initial residual = 0, Final residual = 0, No Iterations 0
DILUPBiCGStab:  Solving for k, Initial residual = 6.77424e-05, Final residual = 7.24967e-07, No Iterations 1
ExecutionTime = 0.51 s  ClockTime = 0 s

Time = 65

DILUPBiCGStab:  Solving for Ux, Initial residual = 0.00627364, Final residual = 0.000151204, No Iterations 1
DILUPBiCGStab:  Solving for Uy, Initial residual = 0.00111826, Final residual = 2.66987e-05, No Iterations 1
DILUPBiCGStab:  Solving for Uz, Initial residual = 0.0135478, Final residual = 0.000398118, No Iterations 1
DILUPBiCGStab:  Solving for e, Initial residual = 0.0269405, Final residual = 0.000225502, No Iterations 1
DICPCG:  Solving for p_rgh, Initial residual = 0.0106087, Final residual = 8.0523e-05, No Iterations 90
time step continuity errors : sum local = 0.0688281, global = -0.000174713, cumulative = -1.66251
DILUPBiCGStab:  Solving for epsilon, Initial residual = 0, Final residual = 0, No Iterations 0
DILUPBiCGStab:  Solving for k, Initial residual = 6.20291e-05, Final residual = 6.88382e-07, No Iterations 1
ExecutionTime = 0.51 s  ClockTime = 0 s

Time = 66

DILUPBiCGStab:  Solving for Ux, Initial residual = 0.00539927, Final residual = 0.000132173, No Iterations 1
DILUPBiCGStab:  Solving for Uy, Initial residual = 0.000991275, Final residual = 2.30723e-05, No Iterations 1
DILUPBiCGStab:  Solving for Uz, Initial residual = 0.01331, Final residual = 0.000386848, No Iterations 1
DILUPBiCGStab:  Solving for e, Initial residual = 0.027559, Final residual = 0.000232423, No Iterations 1
DICPCG:  Solving for p_rgh, Initial residual = 0.0102088, Final residual = 7.00982e-05, No Iterations 89
time step continuity errors : sum local = 0.0599254, global = -0.000330423, cumulative = -1.66284
DILUPBiCGStab:  Solving for epsilon, Initial residual = 0, Final residual = 0, No Iterations 0
DILUPBiCGStab:  Solving for k, Initial residual = 5.67247e-05, Final residual = 6.53182e-07, No Iterations 1
ExecutionTime = 0.52 s  ClockTime = 0 s

Time = 67

DILUPBiCGStab:  Solving for Ux, Initial residual = 0.00464868, Final residual = 0.000112302, No Iterations 1
DILUPBiCGStab:  Solving for Uy, Initial residual = 0.000869141, Final residual = 1.98269e-05, No Iterations 1
DILUPBiCGStab:  Solving for Uz, Initial residual = 0.0130466, Final residual = 0.000374777, No Iterations 1
DILUPBiCGStab:  Solving for e, Initial residual = 0.028195, Final residual = 0.000239385, No Iterations 1
DICPCG:  Solving for p_rgh, Initial residual = 0.00986142, Final residual = 8.79767e-05, No Iterations 50
time step continuity errors : sum local = 0.075169, global = 0.00791359, cumulative = -1.65493
DILUPBiCGStab:  Solving for epsilon, Initial residual = 0, Final residual = 0, No Iterations 0
DILUPBiCGStab:  Solving for k, Initial residual = 5.21946e-05, Final residual = 6.19799e-07, No Iterations 1
ExecutionTime = 0.53 s  ClockTime = 0 s

Time = 68

DILUPBiCGStab:  Solving for Ux, Initial residual = 0.00403416, Final residual = 9.37651e-05, No Iterations 1
DILUPBiCGStab:  Solving for Uy, Initial residual = 0.000785728, Final residual = 1.91385e-05, No Iterations 1
DILUPBiCGStab:  Solving for Uz, Initial residual = 0.0127614, Final residual = 0.00036253, No Iterations 1
DILUPBiCGStab:  Solving for e, Initial residual = 0.0288501, Final residual = 0.000246327, No Iterations 1
DICPCG:  Solving for p_rgh, Initial residual = 0.00942652, Final residual = 7.34968e-05, No Iterations 90
time step continuity errors : sum local = 0.0627154, global = 0.000113994, cumulative = -1.65481
DILUPBiCGStab:  Solving for epsilon, Initial residual = 0, Final residual = 0, No Iterations 0
DILUPBiCGStab:  Solving for k, Initial residual = 4.86158e-05, Final residual = 5.81028e-07, No Iterations 1
ExecutionTime = 0.53 s  ClockTime = 0 s

Time = 69

DILUPBiCGStab:  Solving for Ux, Initial residual = 0.00379144, Final residual = 8.34432e-05, No Iterations 1
DILUPBiCGStab:  Solving for Uy, Initial residual = 0.000788587, Final residual = 2.01406e-05, No Iterations 1
DILUPBiCGStab:  Solving for Uz, Initial residual = 0.0124725, Final residual = 0.000350829, No Iterations 1
DILUPBiCGStab:  Solving for e, Initial residual = 0.0295193, Final residual = 0.000253129, No Iterations 1
DICPCG:  Solving for p_rgh, Initial residual = 0.00901481, Final residual = 7.10403e-05, No Iterations 90
time step continuity errors : sum local = 0.0604783, global = 0.000196134, cumulative = -1.65462
DILUPBiCGStab:  Solving for epsilon, Initial residual = 0, Final residual = 0, No Iterations 0
DILUPBiCGStab:  Solving for k, Initial residual = 4.62074e-05, Final residual = 5.36152e-07, No Iterations 1
ExecutionTime = 0.54 s  ClockTime = 0 s

Time = 70

DILUPBiCGStab:  Solving for Ux, Initial residual = 0.00341461, Final residual = 7.37397e-05, No Iterations 1
DILUPBiCGStab:  Solving for Uy, Initial residual = 0.000806016, Final residual = 2.01712e-05, No Iterations 1
DILUPBiCGStab:  Solving for Uz, Initial residual = 0.0121945, Final residual = 0.000340331, No Iterations 1
DILUPBiCGStab:  Solving for e, Initial residual = 0.0301981, Final residual = 0.000259651, No Iterations 1
DICPCG:  Solving for p_rgh, Initial residual = 0.0086935, Final residual = 5.90885e-05, No Iterations 63
time step continuity errors : sum local = 0.050193, global = 0.00402997, cumulative = -1.65059
DILUPBiCGStab:  Solving for epsilon, Initial residual = 0, Final residual = 0, No Iterations 0
DILUPBiCGStab:  Solving for k, Initial residual = 4.46659e-05, Final residual = 4.81078e-07, No Iterations 1
ExecutionTime = 0.54 s  ClockTime = 0 s

Time = 71

DILUPBiCGStab:  Solving for Ux, Initial residual = 0.00273878, Final residual = 6.07028e-05, No Iterations 1
DILUPBiCGStab:  Solving for Uy, Initial residual = 0.0007655, Final residual = 1.8853e-05, No Iterations 1
DILUPBiCGStab:  Solving for Uz, Initial residual = 0.0119047, Final residual = 0.000330212, No Iterations 1
DILUPBiCGStab:  Solving for e, Initial residual = 0.0308821, Final residual = 0.000265754, No Iterations 1
DICPCG:  Solving for p_rgh, Initial residual = 0.00851651, Final residual = 6.82522e-05, No Iterations 63
time step continuity errors : sum local = 0.0579136, global = -0.00691146, cumulative = -1.6575
DILUPBiCGStab:  Solving for epsilon, Initial residual = 0, Final residual = 0, No Iterations 0
DILUPBiCGStab:  Solving for k, Initial residual = 4.30788e-05, Final residual = 4.16702e-07, No Iterations 1
ExecutionTime = 0.55 s  ClockTime = 0 s

Time = 72

DILUPBiCGStab:  Solving for Ux, Initial residual = 0.00206637, Final residual = 4.87488e-05, No Iterations 1
DILUPBiCGStab:  Solving for Uy, Initial residual = 0.000678681, Final residual = 1.62701e-05, No Iterations 1
DILUPBiCGStab:  Solving for Uz, Initial residual = 0.0116112, Final residual = 0.000320117, No Iterations 1
DILUPBiCGStab:  Solving for e, Initial residual = 0.0315657, Final residual = 0.000271154, No Iterations 1
DICPCG:  Solving for p_rgh, Initial residual = 0.00844557, Final residual = 8.13341e-05, No Iterations 90
time step continuity errors : sum local = 0.0689575, global = -8.42327e-05, cumulative = -1.65758
DILUPBiCGStab:  Solving for epsilon, Initial residual = 0, Final residual = 0, No Iterations 0
DILUPBiCGStab:  Solving for k, Initial residual = 4.14196e-05, Final residual = 3.65814e-07, No Iterations 1
ExecutionTime = 0.55 s  ClockTime = 0 s

Time = 73

DILUPBiCGStab:  Solving for Ux, Initial residual = 0.00128551, Final residual = 3.2924e-05, No Iterations 1
DILUPBiCGStab:  Solving for Uy, Initial residual = 0.000584229, Final residual = 1.35361e-05, No Iterations 1
DILUPBiCGStab:  Solving for Uz, Initial residual = 0.0113446, Final residual = 0.000314461, No Iterations 1
DILUPBiCGStab:  Solving for e, Initial residual = 0.0322025, Final residual = 0.000278966, No Iterations 1
DICPCG:  Solving for p_rgh, Initial residual = 0.00832624, Final residual = 4.80339e-05, No Iterations 91
time step continuity errors : sum local = 0.0407281, global = -5.17606e-07, cumulative = -1.65758
DILUPBiCGStab:  Solving for epsilon, Initial residual = 0, Final residual = 0, No Iterations 0
DILUPBiCGStab:  Solving for k, Initial residual = 3.93619e-05, Final residual = 3.17213e-07, No Iterations 1
ExecutionTime = 0.56 s  ClockTime = 0 s

Time = 74

DILUPBiCGStab:  Solving for Ux, Initial residual = 0.00103854, Final residual = 2.33739e-05, No Iterations 1
DILUPBiCGStab:  Solving for Uy, Initial residual = 0.000524175, Final residual = 1.14875e-05, No Iterations 1
DILUPBiCGStab:  Solving for Uz, Initial residual = 0.011133, Final residual = 0.000309582, No Iterations 1
DILUPBiCGStab:  Solving for e, Initial residual = 0.0328126, Final residual = 0.000286544, No Iterations 1
DICPCG:  Solving for p_rgh, Initial residual = 0.00813787, Final residual = 7.04177e-05, No Iterations 90
time step continuity errors : sum local = 0.0596985, global = -6.58256e-06, cumulative = -1.65759
DILUPBiCGStab:  Solving for epsilon, Initial residual = 0, Final residual = 0, No Iterations 0
DILUPBiCGStab:  Solving for k, Initial residual = 3.66803e-05, Final residual = 2.73055e-07, No Iterations 1
ExecutionTime = 0.56 s  ClockTime = 0 s

Time = 75

DILUPBiCGStab:  Solving for Ux, Initial residual = 0.00102326, Final residual = 1.87075e-05, No Iterations 1
DILUPBiCGStab:  Solving for Uy, Initial residual = 0.000469595, Final residual = 9.56744e-06, No Iterations 1
DILUPBiCGStab:  Solving for Uz, Initial residual = 0.0109788, Final residual = 0.000304234, No Iterations 1
DILUPBiCGStab:  Solving for e, Initial residual = 0.0334215, Final residual = 0.000293081, No Iterations 1
DICPCG:  Solving for p_rgh, Initial residual = 0.00798229, Final residual = 4.99028e-05, No Iterations 90
time step continuity errors : sum local = 0.04229, global = -0.000172569, cumulative = -1.65776
DILUPBiCGStab:  Solving for epsilon, Initial residual = 0, Final residual = 0, No Iterations 0
DILUPBiCGStab:  Solving for k, Initial residual = 3.36052e-05, Final residual = 2.30968e-07, No Iterations 1
ExecutionTime = 0.57 s  ClockTime = 0 s

Time = 76

DILUPBiCGStab:  Solving for Ux, Initial residual = 0.00104173, Final residual = 1.68734e-05, No Iterations 1
DILUPBiCGStab:  Solving for Uy, Initial residual = 0.000439803, Final residual = 8.65326e-06, No Iterations 1
DILUPBiCGStab:  Solving for Uz, Initial residual = 0.0108698, Final residual = 0.000298321, No Iterations 1
DILUPBiCGStab:  Solving for e, Initial residual = 0.0340231, Final residual = 0.000298379, No Iterations 1
DICPCG:  Solving for p_rgh, Initial residual = 0.00786012, Final residual = 6.17151e-05, No Iterations 89
time step continuity errors : sum local = 0.0522662, global = 0.000247592, cumulative = -1.65752
DILUPBiCGStab:  Solving for epsilon, Initial residual = 0, Final residual = 0, No Iterations 0
DILUPBiCGStab:  Solving for k, Initial residual = 3.0848e-05, Final residual = 1.97112e-07, No Iterations 1
ExecutionTime = 0.58 s  ClockTime = 0 s

Time = 77

DILUPBiCGStab:  Solving for Ux, Initial residual = 0.00105048, Final residual = 1.65066e-05, No Iterations 1
DILUPBiCGStab:  Solving for Uy, Initial residual = 0.000405391, Final residual = 8.30084e-06, No Iterations 1
DILUPBiCGStab:  Solving for Uz, Initial residual = 0.0107923, Final residual = 0.000291795, No Iterations 1
DILUPBiCGStab:  Solving for e, Initial residual = 0.034623, Final residual = 0.000302395, No Iterations 1
DICPCG:  Solving for p_rgh, Initial residual = 0.00771394, Final residual = 7.52388e-05, No Iterations 89
time step continuity errors : sum local = 0.0636695, global = -1.75555e-05, cumulative = -1.65753
DILUPBiCGStab:  Solving for epsilon, Initial residual = 0, Final residual = 0, No Iterations 0
DILUPBiCGStab:  Solving for k, Initial residual = 2.77684e-05, Final residual = 1.65152e-07, No Iterations 1
ExecutionTime = 0.58 s  ClockTime = 0 s

Time = 78

DILUPBiCGStab:  Solving for Ux, Initial residual = 0.00102013, Final residual = 1.57366e-05, No Iterations 1
DILUPBiCGStab:  Solving for Uy, Initial residual = 0.000395093, Final residual = 8.17746e-06, No Iterations 1
DILUPBiCGStab:  Solving for Uz, Initial residual = 0.0107426, Final residual = 0.000284641, No Iterations 1
DILUPBiCGStab:  Solving for e, Initial residual = 0.0352179, Final residual = 0.000305048, No Iterations 1
DICPCG:  Solving for p_rgh, Initial residual = 0.00756824, Final residual = 7.43342e-05, No Iterations 89
time step continuity errors : sum local = 0.0628562, global = 9.59547e-05, cumulative = -1.65744
DILUPBiCGStab:  Solving for epsilon, Initial residual = 0, Final residual = 0, No Iterations 0
DILUPBiCGStab:  Solving for k, Initial residual = 2.49881e-05, Final residual = 1.39274e-07, No Iterations 1
ExecutionTime = 0.59 s  ClockTime = 0 s

Time = 79

DILUPBiCGStab:  Solving for Ux, Initial residual = 0.000999742, Final residual = 1.44959e-05, No Iterations 1
DILUPBiCGStab:  Solving for Uy, Initial residual = 0.000397363, Final residual = 8.43044e-06, No Iterations 1
DILUPBiCGStab:  Solving for Uz, Initial residual = 0.010723, Final residual = 0.000276831, No Iterations 1
DILUPBiCGStab:  Solving for e, Initial residual = 0.0358029, Final residual = 0.000306705, No Iterations 1
DICPCG:  Solving for p_rgh, Initial residual = 0.00743173, Final residual = 6.60219e-05, No Iterations 89
time step continuity errors : sum local = 0.0557872, global = 0.000222196, cumulative = -1.65722
DILUPBiCGStab:  Solving for epsilon, Initial residual = 0, Final residual = 0, No Iterations 0
DILUPBiCGStab:  Solving for k, Initial residual = 2.24846e-05, Final residual = 1.18875e-07, No Iterations 1
ExecutionTime = 0.59 s  ClockTime = 0 s

Time = 80

DILUPBiCGStab:  Solving for Ux, Initial residual = 0.000984401, Final residual = 1.34313e-05, No Iterations 1
DILUPBiCGStab:  Solving for Uy, Initial residual = 0.000397622, Final residual = 8.57514e-06, No Iterations 1
DILUPBiCGStab:  Solving for Uz, Initial residual = 0.0107213, Final residual = 0.000268347, No Iterations 1
DILUPBiCGStab:  Solving for e, Initial residual = 0.0363846, Final residual = 0.000307135, No Iterations 1
DICPCG:  Solving for p_rgh, Initial residual = 0.00726533, Final residual = 6.75262e-05, No Iterations 88
time step continuity errors : sum local = 0.0570192, global = 0.000291037, cumulative = -1.65692
DILUPBiCGStab:  Solving for epsilon, Initial residual = 0, Final residual = 0, No Iterations 0
DILUPBiCGStab:  Solving for k, Initial residual = 2.06211e-05, Final residual = 1.064e-07, No Iterations 1
ExecutionTime = 0.6 s  ClockTime = 0 s

Time = 81

DILUPBiCGStab:  Solving for Ux, Initial residual = 0.000977985, Final residual = 1.29844e-05, No Iterations 1
DILUPBiCGStab:  Solving for Uy, Initial residual = 0.000392964, Final residual = 8.45212e-06, No Iterations 1
DILUPBiCGStab:  Solving for Uz, Initial residual = 0.0107294, Final residual = 0.00025933, No Iterations 1
DILUPBiCGStab:  Solving for e, Initial residual = 0.0369541, Final residual = 0.000306117, No Iterations 1
DICPCG:  Solving for p_rgh, Initial residual = 0.00707396, Final residual = 5.83142e-05, No Iterations 87
time step continuity errors : sum local = 0.0492084, global = -0.000116348, cumulative = -1.65704
DILUPBiCGStab:  Solving for epsilon, Initial residual = 0, Final residual = 0, No Iterations 0
DILUPBiCGStab:  Solving for k, Initial residual = 1.85185e-05, Final residual = 9.1792e-08, No Iterations 1
ExecutionTime = 0.61 s  ClockTime = 0 s

Time = 82

DILUPBiCGStab:  Solving for Ux, Initial residual = 0.000992567, Final residual = 1.32111e-05, No Iterations 1
DILUPBiCGStab:  Solving for Uy, Initial residual = 0.000384527, Final residual = 8.10002e-06, No Iterations 1
DILUPBiCGStab:  Solving for Uz, Initial residual = 0.0107335, Final residual = 0.000249646, No Iterations 1
DILUPBiCGStab:  Solving for e, Initial residual = 0.0375067, Final residual = 0.000303632, No Iterations 1
DICPCG:  Solving for p_rgh, Initial residual = 0.00690007, Final residual = 5.10337e-05, No Iterations 88
time step continuity errors : sum local = 0.0430354, global = -0.000162737, cumulative = -1.6572
DILUPBiCGStab:  Solving for epsilon, Initial residual = 0, Final residual = 0, No Iterations 0
DILUPBiCGStab:  Solving for k, Initial residual = 1.6725e-05, Final residual = 8.04705e-08, No Iterations 1
ExecutionTime = 0.61 s  ClockTime = 0 s

Time = 83

DILUPBiCGStab:  Solving for Ux, Initial residual = 0.000989185, Final residual = 1.34664e-05, No Iterations 1
DILUPBiCGStab:  Solving for Uy, Initial residual = 0.00037326, Final residual = 7.6339e-06, No Iterations 1
DILUPBiCGStab:  Solving for Uz, Initial residual = 0.0107298, Final residual = 0.000239512, No Iterations 1
DILUPBiCGStab:  Solving for e, Initial residual = 0.0380511, Final residual = 0.000299793, No Iterations 1
DICPCG:  Solving for p_rgh, Initial residual = 0.00673353, Final residual = 6.5162e-05, No Iterations 87
time step continuity errors : sum local = 0.0549057, global = 0.000250274, cumulative = -1.65695
DILUPBiCGStab:  Solving for epsilon, Initial residual = 0, Final residual = 0, No Iterations 0
DILUPBiCGStab:  Solving for k, Initial residual = 1.52435e-05, Final residual = 7.36473e-08, No Iterations 1
ExecutionTime = 0.62 s  ClockTime = 0 s

Time = 84

DILUPBiCGStab:  Solving for Ux, Initial residual = 0.000939677, Final residual = 1.30632e-05, No Iterations 1
DILUPBiCGStab:  Solving for Uy, Initial residual = 0.000359013, Final residual = 7.15233e-06, No Iterations 1
DILUPBiCGStab:  Solving for Uz, Initial residual = 0.0107204, Final residual = 0.000229239, No Iterations 1
DILUPBiCGStab:  Solving for e, Initial residual = 0.0385708, Final residual = 0.00029453, No Iterations 1
DICPCG:  Solving for p_rgh, Initial residual = 0.0065701, Final residual = 6.25977e-05, No Iterations 66
time step continuity errors : sum local = 0.0526955, global = -0.00412602, cumulative = -1.66108
DILUPBiCGStab:  Solving for epsilon, Initial residual = 0, Final residual = 0, No Iterations 0
DILUPBiCGStab:  Solving for k, Initial residual = 1.38752e-05, Final residual = 6.8915e-08, No Iterations 1
ExecutionTime = 0.62 s  ClockTime = 0 s

Time = 85

DILUPBiCGStab:  Solving for Ux, Initial residual = 0.00081465, Final residual = 1.1329e-05, No Iterations 1
DILUPBiCGStab:  Solving for Uy, Initial residual = 0.000341609, Final residual = 6.63763e-06, No Iterations 1
DILUPBiCGStab:  Solving for Uz, Initial residual = 0.0107052, Final residual = 0.000219048, No Iterations 1
DILUPBiCGStab:  Solving for e, Initial residual = 0.0390611, Final residual = 0.000287909, No Iterations 1
DICPCG:  Solving for p_rgh, Initial residual = 0.00640658, Final residual = 6.34699e-05, No Iterations 89
time step continuity errors : sum local = 0.0533611, global = 0.00019638, cumulative = -1.66088
DILUPBiCGStab:  Solving for epsilon, Initial residual = 0, Final residual = 0, No Iterations 0
DILUPBiCGStab:  Solving for k, Initial residual = 1.28906e-05, Final residual = 6.75338e-08, No Iterations 1
ExecutionTime = 0.63 s  ClockTime = 0 s

Time = 86

DILUPBiCGStab:  Solving for Ux, Initial residual = 0.000752619, Final residual = 1.06049e-05, No Iterations 1
DILUPBiCGStab:  Solving for Uy, Initial residual = 0.000323675, Final residual = 6.13542e-06, No Iterations 1
DILUPBiCGStab:  Solving for Uz, Initial residual = 0.0106869, Final residual = 0.000209181, No Iterations 1
DILUPBiCGStab:  Solving for e, Initial residual = 0.0395287, Final residual = 0.000280082, No Iterations 1
DICPCG:  Solving for p_rgh, Initial residual = 0.00622876, Final residual = 5.62872e-05, No Iterations 31
time step continuity errors : sum local = 0.0472732, global = -0.00499752, cumulative = -1.66588
DILUPBiCGStab:  Solving for epsilon, Initial residual = 0, Final residual = 0, No Iterations 0
DILUPBiCGStab:  Solving for k, Initial residual = 1.1897e-05, Final residual = 6.54626e-08, No Iterations 1
ExecutionTime = 0.63 s  ClockTime = 0 s

Time = 87

DILUPBiCGStab:  Solving for Ux, Initial residual = 0.000674731, Final residual = 9.61037e-06, No Iterations 1
DILUPBiCGStab:  Solving for Uy, Initial residual = 0.000306642, Final residual = 5.67473e-06, No Iterations 1
DILUPBiCGStab:  Solving for Uz, Initial residual = 0.0106698, Final residual = 0.000199671, No Iterations 1
DILUPBiCGStab:  Solving for e, Initial residual = 0.0399472, Final residual = 0.000271006, No Iterations 1
DICPCG:  Solving for p_rgh, Initial residual = 0.00605417, Final residual = 5.25154e-05, No Iterations 35
time step continuity errors : sum local = 0.0440468, global = -0.00318107, cumulative = -1.66906
DILUPBiCGStab:  Solving for epsilon, Initial residual = 0, Final residual = 0, No Iterations 0
DILUPBiCGStab:  Solving for k, Initial residual = 1.10885e-05, Final residual = 6.49153e-08, No Iterations 1
ExecutionTime = 0.64 s  ClockTime = 0 s

Time = 88

DILUPBiCGStab:  Solving for Ux, Initial residual = 0.000636983, Final residual = 9.25545e-06, No Iterations 1
DILUPBiCGStab:  Solving for Uy, Initial residual = 0.000288518, Final residual = 5.25949e-06, No Iterations 1
DILUPBiCGStab:  Solving for Uz, Initial residual = 0.0106573, Final residual = 0.000190671, No Iterations 1
DILUPBiCGStab:  Solving for e, Initial residual = 0.0403046, Final residual = 0.000260773, No Iterations 1
DICPCG:  Solving for p_rgh, Initial residual = 0.0058831, Final residual = 4.94018e-05, No Iterations 38
[...]
DILUPBiCGStab:  Solving for k, Initial residual = 9.03825e-06, Final residual = 9.03825e-06, No Iterations 0
ExecutionTime = 4.97 s  ClockTime = 5 s

Time = 979

DILUPBiCGStab:  Solving for Ux, Initial residual = 1.18874e-05, Final residual = 1.11379e-07, No Iterations 1
DILUPBiCGStab:  Solving for Uy, Initial residual = 2.52824e-06, Final residual = 2.52824e-06, No Iterations 0
DILUPBiCGStab:  Solving for Uz, Initial residual = 0.000213076, Final residual = 3.12107e-06, No Iterations 1
DILUPBiCGStab:  Solving for e, Initial residual = 9.68197e-06, Final residual = 9.68197e-06, No Iterations 0
DICPCG:  Solving for p_rgh, Initial residual = 5.3125e-05, Final residual = 5.15754e-07, No Iterations 61
time step continuity errors : sum local = 0.000391124, global = -5.4634e-06, cumulative = -1.60695
DILUPBiCGStab:  Solving for epsilon, Initial residual = 0, Final residual = 0, No Iterations 0
DILUPBiCGStab:  Solving for k, Initial residual = 9.04376e-06, Final residual = 9.04376e-06, No Iterations 0
ExecutionTime = 4.97 s  ClockTime = 5 s

Time = 980

DILUPBiCGStab:  Solving for Ux, Initial residual = 1.27441e-05, Final residual = 1.18449e-07, No Iterations 1
DILUPBiCGStab:  Solving for Uy, Initial residual = 2.53089e-06, Final residual = 2.53089e-06, No Iterations 0
DILUPBiCGStab:  Solving for Uz, Initial residual = 0.000212548, Final residual = 3.1166e-06, No Iterations 1
DILUPBiCGStab:  Solving for e, Initial residual = 9.68707e-06, Final residual = 9.68707e-06, No Iterations 0
DICPCG:  Solving for p_rgh, Initial residual = 5.29524e-05, Final residual = 5.10558e-07, No Iterations 33
time step continuity errors : sum local = 0.000387183, global = 1.8613e-05, cumulative = -1.60693
DILUPBiCGStab:  Solving for epsilon, Initial residual = 0, Final residual = 0, No Iterations 0
DILUPBiCGStab:  Solving for k, Initial residual = 9.05112e-06, Final residual = 9.05112e-06, No Iterations 0
ExecutionTime = 4.98 s  ClockTime = 5 s

Time = 981

DILUPBiCGStab:  Solving for Ux, Initial residual = 1.19362e-05, Final residual = 1.10807e-07, No Iterations 1
DILUPBiCGStab:  Solving for Uy, Initial residual = 2.52378e-06, Final residual = 2.52378e-06, No Iterations 0
DILUPBiCGStab:  Solving for Uz, Initial residual = 0.000211995, Final residual = 3.11227e-06, No Iterations 1
DILUPBiCGStab:  Solving for e, Initial residual = 9.69186e-06, Final residual = 9.69186e-06, No Iterations 0
DICPCG:  Solving for p_rgh, Initial residual = 5.27855e-05, Final residual = 5.05204e-07, No Iterations 2
time step continuity errors : sum local = 0.000383124, global = -1.21571e-05, cumulative = -1.60694
DILUPBiCGStab:  Solving for epsilon, Initial residual = 0, Final residual = 0, No Iterations 0
DILUPBiCGStab:  Solving for k, Initial residual = 9.05577e-06, Final residual = 9.05577e-06, No Iterations 0
ExecutionTime = 4.98 s  ClockTime = 5 s

Time = 982

DILUPBiCGStab:  Solving for Ux, Initial residual = 1.09975e-05, Final residual = 9.98453e-08, No Iterations 1
DILUPBiCGStab:  Solving for Uy, Initial residual = 2.5066e-06, Final residual = 2.5066e-06, No Iterations 0
DILUPBiCGStab:  Solving for Uz, Initial residual = 0.000211553, Final residual = 3.11019e-06, No Iterations 1
DILUPBiCGStab:  Solving for e, Initial residual = 9.69714e-06, Final residual = 9.69714e-06, No Iterations 0
DICPCG:  Solving for p_rgh, Initial residual = 5.26055e-05, Final residual = 4.23051e-07, No Iterations 30
time step continuity errors : sum local = 0.000320824, global = 4.68295e-05, cumulative = -1.60689
DILUPBiCGStab:  Solving for epsilon, Initial residual = 0, Final residual = 0, No Iterations 0
DILUPBiCGStab:  Solving for k, Initial residual = 9.06275e-06, Final residual = 9.06275e-06, No Iterations 0
ExecutionTime = 4.99 s  ClockTime = 5 s

Time = 983

DILUPBiCGStab:  Solving for Ux, Initial residual = 1.05915e-05, Final residual = 9.9953e-08, No Iterations 1
DILUPBiCGStab:  Solving for Uy, Initial residual = 2.51642e-06, Final residual = 2.51642e-06, No Iterations 0
DILUPBiCGStab:  Solving for Uz, Initial residual = 0.000211068, Final residual = 3.10706e-06, No Iterations 1
DILUPBiCGStab:  Solving for e, Initial residual = 9.70182e-06, Final residual = 9.70182e-06, No Iterations 0
DICPCG:  Solving for p_rgh, Initial residual = 5.24622e-05, Final residual = 4.21216e-07, No Iterations 73
time step continuity errors : sum local = 0.000319433, global = 9.26977e-06, cumulative = -1.60688
DILUPBiCGStab:  Solving for epsilon, Initial residual = 0, Final residual = 0, No Iterations 0
DILUPBiCGStab:  Solving for k, Initial residual = 9.06837e-06, Final residual = 9.06837e-06, No Iterations 0
ExecutionTime = 5 s  ClockTime = 5 s

Time = 984

DILUPBiCGStab:  Solving for Ux, Initial residual = 1.18946e-05, Final residual = 1.13937e-07, No Iterations 1
DILUPBiCGStab:  Solving for Uy, Initial residual = 2.51415e-06, Final residual = 2.51415e-06, No Iterations 0
DILUPBiCGStab:  Solving for Uz, Initial residual = 0.00021058, Final residual = 3.10372e-06, No Iterations 1
DILUPBiCGStab:  Solving for e, Initial residual = 9.70724e-06, Final residual = 9.70724e-06, No Iterations 0
DICPCG:  Solving for p_rgh, Initial residual = 5.23107e-05, Final residual = 3.67622e-07, No Iterations 82
time step continuity errors : sum local = 0.000278789, global = -1.86094e-06, cumulative = -1.60688
DILUPBiCGStab:  Solving for epsilon, Initial residual = 0, Final residual = 0, No Iterations 0
DILUPBiCGStab:  Solving for k, Initial residual = 9.07486e-06, Final residual = 9.07486e-06, No Iterations 0
ExecutionTime = 5 s  ClockTime = 5 s

Time = 985

DILUPBiCGStab:  Solving for Ux, Initial residual = 1.2348e-05, Final residual = 1.16907e-07, No Iterations 1
DILUPBiCGStab:  Solving for Uy, Initial residual = 2.50509e-06, Final residual = 2.50509e-06, No Iterations 0
DILUPBiCGStab:  Solving for Uz, Initial residual = 0.000210071, Final residual = 3.09989e-06, No Iterations 1
DILUPBiCGStab:  Solving for e, Initial residual = 9.71219e-06, Final residual = 9.71219e-06, No Iterations 0
DICPCG:  Solving for p_rgh, Initial residual = 5.21637e-05, Final residual = 4.2504e-07, No Iterations 2
time step continuity errors : sum local = 0.000322332, global = 4.84218e-05, cumulative = -1.60684
DILUPBiCGStab:  Solving for epsilon, Initial residual = 0, Final residual = 0, No Iterations 0
DILUPBiCGStab:  Solving for k, Initial residual = 9.0807e-06, Final residual = 9.0807e-06, No Iterations 0
ExecutionTime = 5.01 s  ClockTime = 5 s

Time = 986

DILUPBiCGStab:  Solving for Ux, Initial residual = 1.13697e-05, Final residual = 1.05264e-07, No Iterations 1
DILUPBiCGStab:  Solving for Uy, Initial residual = 2.48721e-06, Final residual = 2.48721e-06, No Iterations 0
DILUPBiCGStab:  Solving for Uz, Initial residual = 0.000209624, Final residual = 3.09709e-06, No Iterations 1
DILUPBiCGStab:  Solving for e, Initial residual = 9.71708e-06, Final residual = 9.71708e-06, No Iterations 0
DICPCG:  Solving for p_rgh, Initial residual = 5.20011e-05, Final residual = 5.15971e-07, No Iterations 2
time step continuity errors : sum local = 0.000391292, global = 4.21716e-05, cumulative = -1.60679
DILUPBiCGStab:  Solving for epsilon, Initial residual = 0, Final residual = 0, No Iterations 0
DILUPBiCGStab:  Solving for k, Initial residual = 9.08652e-06, Final residual = 9.08652e-06, No Iterations 0
ExecutionTime = 5.01 s  ClockTime = 5 s

Time = 987

DILUPBiCGStab:  Solving for Ux, Initial residual = 1.04403e-05, Final residual = 9.46943e-08, No Iterations 1
DILUPBiCGStab:  Solving for Uy, Initial residual = 2.47113e-06, Final residual = 2.47113e-06, No Iterations 0
DILUPBiCGStab:  Solving for Uz, Initial residual = 0.00020922, Final residual = 3.09538e-06, No Iterations 1
DILUPBiCGStab:  Solving for e, Initial residual = 9.72205e-06, Final residual = 9.72205e-06, No Iterations 0
DICPCG:  Solving for p_rgh, Initial residual = 5.18448e-05, Final residual = 5.09097e-07, No Iterations 60
time step continuity errors : sum local = 0.00038608, global = 1.43876e-05, cumulative = -1.60678
DILUPBiCGStab:  Solving for epsilon, Initial residual = 0, Final residual = 0, No Iterations 0
DILUPBiCGStab:  Solving for k, Initial residual = 9.09268e-06, Final residual = 9.09268e-06, No Iterations 0
ExecutionTime = 5.02 s  ClockTime = 5 s

Time = 988

DILUPBiCGStab:  Solving for Ux, Initial residual = 1.12224e-05, Final residual = 1.03511e-07, No Iterations 1
DILUPBiCGStab:  Solving for Uy, Initial residual = 2.47085e-06, Final residual = 2.47085e-06, No Iterations 0
DILUPBiCGStab:  Solving for Uz, Initial residual = 0.000208747, Final residual = 3.09214e-06, No Iterations 1
DILUPBiCGStab:  Solving for e, Initial residual = 9.72696e-06, Final residual = 9.72696e-06, No Iterations 0
DICPCG:  Solving for p_rgh, Initial residual = 5.17061e-05, Final residual = 4.72233e-07, No Iterations 77
time step continuity errors : sum local = 0.000358124, global = 2.82289e-06, cumulative = -1.60678
DILUPBiCGStab:  Solving for epsilon, Initial residual = 0, Final residual = 0, No Iterations 0
DILUPBiCGStab:  Solving for k, Initial residual = 9.09871e-06, Final residual = 9.09871e-06, No Iterations 0
ExecutionTime = 5.02 s  ClockTime = 5 s

Time = 989

DILUPBiCGStab:  Solving for Ux, Initial residual = 1.17956e-05, Final residual = 1.10232e-07, No Iterations 1
DILUPBiCGStab:  Solving for Uy, Initial residual = 2.4786e-06, Final residual = 2.4786e-06, No Iterations 0
DILUPBiCGStab:  Solving for Uz, Initial residual = 0.000208264, Final residual = 3.08836e-06, No Iterations 1
DILUPBiCGStab:  Solving for e, Initial residual = 9.73203e-06, Final residual = 9.73203e-06, No Iterations 0
DICPCG:  Solving for p_rgh, Initial residual = 5.1564e-05, Final residual = 4.97101e-07, No Iterations 2
time step continuity errors : sum local = 0.000376983, global = 1.18086e-05, cumulative = -1.60677
DILUPBiCGStab:  Solving for epsilon, Initial residual = 0, Final residual = 0, No Iterations 0
DILUPBiCGStab:  Solving for k, Initial residual = 9.10447e-06, Final residual = 9.10447e-06, No Iterations 0
ExecutionTime = 5.02 s  ClockTime = 5 s

Time = 990

DILUPBiCGStab:  Solving for Ux, Initial residual = 1.08517e-05, Final residual = 9.91786e-08, No Iterations 1
DILUPBiCGStab:  Solving for Uy, Initial residual = 2.46331e-06, Final residual = 2.46331e-06, No Iterations 0
DILUPBiCGStab:  Solving for Uz, Initial residual = 0.000207853, Final residual = 3.08627e-06, No Iterations 1
DILUPBiCGStab:  Solving for e, Initial residual = 9.73685e-06, Final residual = 9.73685e-06, No Iterations 0
DICPCG:  Solving for p_rgh, Initial residual = 5.14078e-05, Final residual = 5.08112e-07, No Iterations 74
time step continuity errors : sum local = 0.000385334, global = -2.13561e-06, cumulative = -1.60677
DILUPBiCGStab:  Solving for epsilon, Initial residual = 0, Final residual = 0, No Iterations 0
DILUPBiCGStab:  Solving for k, Initial residual = 9.11112e-06, Final residual = 9.11112e-06, No Iterations 0
ExecutionTime = 5.03 s  ClockTime = 5 s

Time = 991

DILUPBiCGStab:  Solving for Ux, Initial residual = 1.12715e-05, Final residual = 1.05763e-07, No Iterations 1
DILUPBiCGStab:  Solving for Uy, Initial residual = 2.47266e-06, Final residual = 2.47266e-06, No Iterations 0
DILUPBiCGStab:  Solving for Uz, Initial residual = 0.000207373, Final residual = 3.08261e-06, No Iterations 1
DILUPBiCGStab:  Solving for e, Initial residual = 9.74186e-06, Final residual = 9.74186e-06, No Iterations 0
DICPCG:  Solving for p_rgh, Initial residual = 5.12702e-05, Final residual = 4.78908e-07, No Iterations 71
time step continuity errors : sum local = 0.000363187, global = -1.20572e-06, cumulative = -1.60677
DILUPBiCGStab:  Solving for epsilon, Initial residual = 0, Final residual = 0, No Iterations 0
DILUPBiCGStab:  Solving for k, Initial residual = 9.11729e-06, Final residual = 9.11729e-06, No Iterations 0
ExecutionTime = 5.03 s  ClockTime = 5 s

Time = 992

DILUPBiCGStab:  Solving for Ux, Initial residual = 1.14782e-05, Final residual = 1.09081e-07, No Iterations 1
DILUPBiCGStab:  Solving for Uy, Initial residual = 2.46786e-06, Final residual = 2.46786e-06, No Iterations 0
DILUPBiCGStab:  Solving for Uz, Initial residual = 0.000206869, Final residual = 3.0783e-06, No Iterations 1
DILUPBiCGStab:  Solving for e, Initial residual = 9.74653e-06, Final residual = 9.74653e-06, No Iterations 0
DICPCG:  Solving for p_rgh, Initial residual = 5.11262e-05, Final residual = 4.70094e-07, No Iterations 2
time step continuity errors : sum local = 0.000356503, global = 4.36617e-05, cumulative = -1.60672
DILUPBiCGStab:  Solving for epsilon, Initial residual = 0, Final residual = 0, No Iterations 0
DILUPBiCGStab:  Solving for k, Initial residual = 9.12258e-06, Final residual = 9.12258e-06, No Iterations 0
ExecutionTime = 5.04 s  ClockTime = 5 s

Time = 993

DILUPBiCGStab:  Solving for Ux, Initial residual = 1.05993e-05, Final residual = 9.83908e-08, No Iterations 1
DILUPBiCGStab:  Solving for Uy, Initial residual = 2.45054e-06, Final residual = 2.45054e-06, No Iterations 0
DILUPBiCGStab:  Solving for Uz, Initial residual = 0.00020644, Final residual = 3.07573e-06, No Iterations 1
DILUPBiCGStab:  Solving for e, Initial residual = 9.75136e-06, Final residual = 9.75136e-06, No Iterations 0
DICPCG:  Solving for p_rgh, Initial residual = 5.09701e-05, Final residual = 4.33789e-07, No Iterations 59
time step continuity errors : sum local = 0.000328971, global = -2.64149e-06, cumulative = -1.60673
DILUPBiCGStab:  Solving for epsilon, Initial residual = 0, Final residual = 0, No Iterations 0
DILUPBiCGStab:  Solving for k, Initial residual = 9.1289e-06, Final residual = 9.1289e-06, No Iterations 0
ExecutionTime = 5.04 s  ClockTime = 5 s

Time = 994

DILUPBiCGStab:  Solving for Ux, Initial residual = 1.09156e-05, Final residual = 9.99888e-08, No Iterations 1
DILUPBiCGStab:  Solving for Uy, Initial residual = 2.44149e-06, Final residual = 2.44149e-06, No Iterations 0
DILUPBiCGStab:  Solving for Uz, Initial residual = 0.000205943, Final residual = 3.07171e-06, No Iterations 1
DILUPBiCGStab:  Solving for e, Initial residual = 9.7563e-06, Final residual = 9.7563e-06, No Iterations 0
DICPCG:  Solving for p_rgh, Initial residual = 5.08505e-05, Final residual = 4.71478e-07, No Iterations 82
time step continuity errors : sum local = 0.000357553, global = -7.08956e-07, cumulative = -1.60673
DILUPBiCGStab:  Solving for epsilon, Initial residual = 0, Final residual = 0, No Iterations 0
DILUPBiCGStab:  Solving for k, Initial residual = 9.13456e-06, Final residual = 9.13456e-06, No Iterations 0
ExecutionTime = 5.05 s  ClockTime = 5 s

Time = 995

DILUPBiCGStab:  Solving for Ux, Initial residual = 1.13284e-05, Final residual = 1.05198e-07, No Iterations 1
DILUPBiCGStab:  Solving for Uy, Initial residual = 2.4356e-06, Final residual = 2.4356e-06, No Iterations 0
DILUPBiCGStab:  Solving for Uz, Initial residual = 0.000205421, Final residual = 3.06729e-06, No Iterations 1
DILUPBiCGStab:  Solving for e, Initial residual = 9.76105e-06, Final residual = 9.76105e-06, No Iterations 0
DICPCG:  Solving for p_rgh, Initial residual = 5.07133e-05, Final residual = 4.81021e-07, No Iterations 2
time step continuity errors : sum local = 0.000364791, global = 3.29726e-05, cumulative = -1.6067
DILUPBiCGStab:  Solving for epsilon, Initial residual = 0, Final residual = 0, No Iterations 0
DILUPBiCGStab:  Solving for k, Initial residual = 9.13965e-06, Final residual = 9.13965e-06, No Iterations 0
ExecutionTime = 5.05 s  ClockTime = 5 s

Time = 996

DILUPBiCGStab:  Solving for Ux, Initial residual = 1.04139e-05, Final residual = 9.46449e-08, No Iterations 1
DILUPBiCGStab:  Solving for Uy, Initial residual = 2.4194e-06, Final residual = 2.4194e-06, No Iterations 0
DILUPBiCGStab:  Solving for Uz, Initial residual = 0.000204973, Final residual = 3.06443e-06, No Iterations 1
DILUPBiCGStab:  Solving for e, Initial residual = 9.76571e-06, Final residual = 9.76571e-06, No Iterations 0
DICPCG:  Solving for p_rgh, Initial residual = 5.05526e-05, Final residual = 4.28452e-07, No Iterations 82
time step continuity errors : sum local = 0.000324925, global = -2.29061e-06, cumulative = -1.6067
DILUPBiCGStab:  Solving for epsilon, Initial residual = 0, Final residual = 0, No Iterations 0
DILUPBiCGStab:  Solving for k, Initial residual = 9.1462e-06, Final residual = 9.1462e-06, No Iterations 0
ExecutionTime = 5.06 s  ClockTime = 5 s

Time = 997

DILUPBiCGStab:  Solving for Ux, Initial residual = 1.12617e-05, Final residual = 1.06655e-07, No Iterations 1
DILUPBiCGStab:  Solving for Uy, Initial residual = 2.41878e-06, Final residual = 2.41878e-06, No Iterations 0
DILUPBiCGStab:  Solving for Uz, Initial residual = 0.000204474, Final residual = 3.06062e-06, No Iterations 1
DILUPBiCGStab:  Solving for e, Initial residual = 9.77064e-06, Final residual = 9.77064e-06, No Iterations 0
DICPCG:  Solving for p_rgh, Initial residual = 5.04366e-05, Final residual = 4.72791e-07, No Iterations 2
time step continuity errors : sum local = 0.00035855, global = 4.56876e-05, cumulative = -1.60665
DILUPBiCGStab:  Solving for epsilon, Initial residual = 0, Final residual = 0, No Iterations 0
DILUPBiCGStab:  Solving for k, Initial residual = 9.15136e-06, Final residual = 9.15136e-06, No Iterations 0
ExecutionTime = 5.06 s  ClockTime = 5 s

Time = 998

DILUPBiCGStab:  Solving for Ux, Initial residual = 1.0379e-05, Final residual = 9.6129e-08, No Iterations 1
DILUPBiCGStab:  Solving for Uy, Initial residual = 2.40383e-06, Final residual = 2.40383e-06, No Iterations 0
DILUPBiCGStab:  Solving for Uz, Initial residual = 0.000204034, Final residual = 3.05796e-06, No Iterations 1
DILUPBiCGStab:  Solving for e, Initial residual = 9.7752e-06, Final residual = 9.7752e-06, No Iterations 0
DICPCG:  Solving for p_rgh, Initial residual = 5.02864e-05, Final residual = 3.96338e-07, No Iterations 77
time step continuity errors : sum local = 0.000300572, global = 4.01104e-07, cumulative = -1.60665
DILUPBiCGStab:  Solving for epsilon, Initial residual = 0, Final residual = 0, No Iterations 0
DILUPBiCGStab:  Solving for k, Initial residual = 9.15768e-06, Final residual = 9.15768e-06, No Iterations 0
ExecutionTime = 5.07 s  ClockTime = 5 s

Time = 999

DILUPBiCGStab:  Solving for Ux, Initial residual = 1.14553e-05, Final residual = 1.08612e-07, No Iterations 1
DILUPBiCGStab:  Solving for Uy, Initial residual = 2.4145e-06, Final residual = 2.4145e-06, No Iterations 0
DILUPBiCGStab:  Solving for Uz, Initial residual = 0.00020355, Final residual = 3.05406e-06, No Iterations 1
DILUPBiCGStab:  Solving for e, Initial residual = 9.78016e-06, Final residual = 9.78016e-06, No Iterations 0
DICPCG:  Solving for p_rgh, Initial residual = 5.01666e-05, Final residual = 4.41556e-07, No Iterations 15
time step continuity errors : sum local = 0.000334863, global = 6.18446e-05, cumulative = -1.60659
DILUPBiCGStab:  Solving for epsilon, Initial residual = 0, Final residual = 0, No Iterations 0
DILUPBiCGStab:  Solving for k, Initial residual = 9.16343e-06, Final residual = 9.16343e-06, No Iterations 0
ExecutionTime = 5.07 s  ClockTime = 5 s

Time = 1000

DILUPBiCGStab:  Solving for Ux, Initial residual = 1.05876e-05, Final residual = 9.81143e-08, No Iterations 1
DILUPBiCGStab:  Solving for Uy, Initial residual = 2.41562e-06, Final residual = 2.41562e-06, No Iterations 0
DILUPBiCGStab:  Solving for Uz, Initial residual = 0.000203035, Final residual = 3.04932e-06, No Iterations 1
DILUPBiCGStab:  Solving for e, Initial residual = 9.78453e-06, Final residual = 9.78453e-06, No Iterations 0
DICPCG:  Solving for p_rgh, Initial residual = 5.00361e-05, Final residual = 4.79946e-07, No Iterations 2
time step continuity errors : sum local = 0.000363978, global = 7.65097e-05, cumulative = -1.60651
DILUPBiCGStab:  Solving for epsilon, Initial residual = 0, Final residual = 0, No Iterations 0
DILUPBiCGStab:  Solving for k, Initial residual = 9.1687e-06, Final residual = 9.1687e-06, No Iterations 0
ExecutionTime = 5.08 s  ClockTime = 5 s

End

