/*---------------------------------------------------------------------------*\
  =========                 |
  \\      /  F ield         | OpenFOAM: The Open Source CFD Toolbox
   \\    /   O peration     | Website:  https://openfoam.org
    \\  /    A nd           | Version:  8
     \\/     M anipulation  |
\*---------------------------------------------------------------------------*/
Build  : 8-1c9b5879390b
Exec   : buoyantSimpleFoam
Date   : Jan 27 2025
Time   : 14:36:16
Host   : "658dd9edf29b"
PID    : 724
I/O    : uncollated
Case   : /home/openfoam/run/180bentPipe/Re100/q-1500
nProcs : 1
sigFpe : Enabling floating point exception trapping (FOAM_SIGFPE).
fileModificationChecking : Monitoring run-time modified files using timeStampMaster (fileModificationSkew 10)
allowSystemOperations : Allowing user-supplied system call operations

// * * * * * * * * * * * * * * * * * * * * * * * * * * * * * * * * * * * * * //
Create time

Create mesh for time = 0


SIMPLE: Convergence criteria found
        p_rgh: tolerance 0.01
        U: tolerance 0.0001
        e: tolerance 0.01
        "(k|epsilon|omega)": tolerance 0.001

Reading thermophysical properties

Selecting thermodynamics package 
{
    type            heRhoThermo;
    mixture         pureMixture;
    transport       const;
    thermo          eConst;
    equationOfState Boussinesq;
    specie          specie;
    energy          sensibleInternalEnergy;
}

Reading field U

Reading/calculating face flux field phi

Creating turbulence model

Selecting turbulence model type RAS
Selecting RAS turbulence model kEpsilon
RAS
{
    RASModel        kEpsilon;
    turbulence      on;
    printCoeffs     on;
    Cmu             0.09;
    C1              1.44;
    C2              1.92;
    C3              0;
    sigmak          1;
    sigmaEps        1.3;
}

Creating thermophysical transport model

Selecting thermophysical transport type RAS
Selecting default RAS thermophysical transport model eddyDiffusivity

Reading g

Reading hRef
Calculating field g.h


Reading pRef
Reading field p_rgh

--> FOAM Warning : 
    From function const Foam::HashTable<Foam::List<int>, Foam::word>& Foam::polyBoundaryMesh::groupPatchIDs() const
    in file meshes/polyMesh/polyBoundaryMesh/polyBoundaryMesh.C at line 473
    Removing patchGroup 'wall' which clashes with patch 0 of the same name.
No MRF models present

Radiation model not active: radiationProperties not found
Selecting radiationModel none
No finite volume options present

Starting time loop

Time = 1

DILUPBiCGStab:  Solving for Ux, Initial residual = 1, Final residual = 0.0205091, No Iterations 1
DILUPBiCGStab:  Solving for Uy, Initial residual = 1, Final residual = 0.0120552, No Iterations 1
DILUPBiCGStab:  Solving for Uz, Initial residual = 0.999996, Final residual = 0.0612726, No Iterations 1
DILUPBiCGStab:  Solving for e, Initial residual = 1, Final residual = 0.00132909, No Iterations 1
DICPCG:  Solving for p_rgh, Initial residual = 0.966908, Final residual = 0.00730643, No Iterations 195
time step continuity errors : sum local = 20.8255, global = 0.0332991, cumulative = 0.0332991
DILUPBiCGStab:  Solving for epsilon, Initial residual = 0, Final residual = 0, No Iterations 0
DILUPBiCGStab:  Solving for k, Initial residual = 1, Final residual = 0.0355659, No Iterations 1
ExecutionTime = 0.25 s  ClockTime = 0 s

Time = 2

DILUPBiCGStab:  Solving for Ux, Initial residual = 0.941663, Final residual = 0.0586057, No Iterations 1
DILUPBiCGStab:  Solving for Uy, Initial residual = 0.989708, Final residual = 0.0172847, No Iterations 1
DILUPBiCGStab:  Solving for Uz, Initial residual = 0.64931, Final residual = 0.0232392, No Iterations 1
DILUPBiCGStab:  Solving for e, Initial residual = 0.174129, Final residual = 0.00168637, No Iterations 1
DICPCG:  Solving for p_rgh, Initial residual = 0.198545, Final residual = 0.00185766, No Iterations 176
time step continuity errors : sum local = 341.405, global = -4.81625, cumulative = -4.78295
DILUPBiCGStab:  Solving for epsilon, Initial residual = 0, Final residual = 0, No Iterations 0
DILUPBiCGStab:  Solving for k, Initial residual = 0.986802, Final residual = 0.0127797, No Iterations 1
ExecutionTime = 0.31 s  ClockTime = 0 s

Time = 3

DILUPBiCGStab:  Solving for Ux, Initial residual = 0.232688, Final residual = 0.00853648, No Iterations 1
DILUPBiCGStab:  Solving for Uy, Initial residual = 0.107242, Final residual = 0.00299069, No Iterations 1
DILUPBiCGStab:  Solving for Uz, Initial residual = 0.499571, Final residual = 0.0138206, No Iterations 1
DILUPBiCGStab:  Solving for e, Initial residual = 0.159509, Final residual = 0.00362332, No Iterations 1
DICPCG:  Solving for p_rgh, Initial residual = 0.920953, Final residual = 0.00732194, No Iterations 206
time step continuity errors : sum local = 140.792, global = 0.0558946, cumulative = -4.72706
DILUPBiCGStab:  Solving for epsilon, Initial residual = 0, Final residual = 0, No Iterations 0
DILUPBiCGStab:  Solving for k, Initial residual = 0.23947, Final residual = 0.0119889, No Iterations 1
ExecutionTime = 0.36 s  ClockTime = 0 s

Time = 4

DILUPBiCGStab:  Solving for Ux, Initial residual = 0.234274, Final residual = 0.0108261, No Iterations 1
DILUPBiCGStab:  Solving for Uy, Initial residual = 0.202612, Final residual = 0.0112281, No Iterations 1
DILUPBiCGStab:  Solving for Uz, Initial residual = 0.508414, Final residual = 0.00798009, No Iterations 1
DILUPBiCGStab:  Solving for e, Initial residual = 0.11851, Final residual = 0.0021207, No Iterations 1
DICPCG:  Solving for p_rgh, Initial residual = 0.723826, Final residual = 0.0055749, No Iterations 217
time step continuity errors : sum local = 95.8851, global = 0.0322661, cumulative = -4.69479
DILUPBiCGStab:  Solving for epsilon, Initial residual = 0, Final residual = 0, No Iterations 0
DILUPBiCGStab:  Solving for k, Initial residual = 0.175492, Final residual = 0.0117155, No Iterations 1
ExecutionTime = 0.43 s  ClockTime = 0 s

Time = 5

DILUPBiCGStab:  Solving for Ux, Initial residual = 0.33529, Final residual = 0.0277901, No Iterations 1
DILUPBiCGStab:  Solving for Uy, Initial residual = 0.431701, Final residual = 0.039927, No Iterations 1
DILUPBiCGStab:  Solving for Uz, Initial residual = 0.414741, Final residual = 0.0164187, No Iterations 1
DILUPBiCGStab:  Solving for e, Initial residual = 0.100241, Final residual = 0.00140682, No Iterations 1
DICPCG:  Solving for p_rgh, Initial residual = 0.643477, Final residual = 0.00445273, No Iterations 215
time step continuity errors : sum local = 151.077, global = -0.0704478, cumulative = -4.76524
DILUPBiCGStab:  Solving for epsilon, Initial residual = 0, Final residual = 0, No Iterations 0
DILUPBiCGStab:  Solving for k, Initial residual = 0.139042, Final residual = 0.00894005, No Iterations 1
ExecutionTime = 0.49 s  ClockTime = 0 s

Time = 6

DILUPBiCGStab:  Solving for Ux, Initial residual = 0.231483, Final residual = 0.019766, No Iterations 1
DILUPBiCGStab:  Solving for Uy, Initial residual = 0.311508, Final residual = 0.0307154, No Iterations 1
DILUPBiCGStab:  Solving for Uz, Initial residual = 0.347856, Final residual = 0.0150314, No Iterations 1
DILUPBiCGStab:  Solving for e, Initial residual = 0.0838929, Final residual = 0.00103467, No Iterations 1
DICPCG:  Solving for p_rgh, Initial residual = 0.842292, Final residual = 0.00828145, No Iterations 216
time step continuity errors : sum local = 336.159, global = 0.164674, cumulative = -4.60057
DILUPBiCGStab:  Solving for epsilon, Initial residual = 0, Final residual = 0, No Iterations 0
DILUPBiCGStab:  Solving for k, Initial residual = 0.121963, Final residual = 0.00778481, No Iterations 1
ExecutionTime = 0.55 s  ClockTime = 0 s

Time = 7

DILUPBiCGStab:  Solving for Ux, Initial residual = 0.157311, Final residual = 0.00858563, No Iterations 1
DILUPBiCGStab:  Solving for Uy, Initial residual = 0.191288, Final residual = 0.0132117, No Iterations 1
DILUPBiCGStab:  Solving for Uz, Initial residual = 0.380048, Final residual = 0.0235287, No Iterations 1
DILUPBiCGStab:  Solving for e, Initial residual = 0.0677857, Final residual = 0.000870453, No Iterations 1
DICPCG:  Solving for p_rgh, Initial residual = 0.601975, Final residual = 0.005662, No Iterations 218
time step continuity errors : sum local = 219.667, global = -0.0953621, cumulative = -4.69593
DILUPBiCGStab:  Solving for epsilon, Initial residual = 0, Final residual = 0, No Iterations 0
DILUPBiCGStab:  Solving for k, Initial residual = 0.116902, Final residual = 0.00733892, No Iterations 1
ExecutionTime = 0.61 s  ClockTime = 0 s

Time = 8

DILUPBiCGStab:  Solving for Ux, Initial residual = 0.20674, Final residual = 0.014939, No Iterations 1
DILUPBiCGStab:  Solving for Uy, Initial residual = 0.259121, Final residual = 0.0190262, No Iterations 1
DILUPBiCGStab:  Solving for Uz, Initial residual = 0.379195, Final residual = 0.017458, No Iterations 1
DILUPBiCGStab:  Solving for e, Initial residual = 0.0502898, Final residual = 0.000741034, No Iterations 1
DICPCG:  Solving for p_rgh, Initial residual = 0.46417, Final residual = 0.00359888, No Iterations 223
time step continuity errors : sum local = 147.979, global = 0.34754, cumulative = -4.34839
DILUPBiCGStab:  Solving for epsilon, Initial residual = 0, Final residual = 0, No Iterations 0
DILUPBiCGStab:  Solving for k, Initial residual = 0.0826818, Final residual = 0.00515612, No Iterations 1
ExecutionTime = 0.67 s  ClockTime = 1 s

Time = 9

DILUPBiCGStab:  Solving for Ux, Initial residual = 0.229235, Final residual = 0.00246413, No Iterations 1
DILUPBiCGStab:  Solving for Uy, Initial residual = 0.300699, Final residual = 0.0273686, No Iterations 1
DILUPBiCGStab:  Solving for Uz, Initial residual = 0.282315, Final residual = 0.0145967, No Iterations 1
DILUPBiCGStab:  Solving for e, Initial residual = 0.0453593, Final residual = 0.000571603, No Iterations 1
DICPCG:  Solving for p_rgh, Initial residual = 0.555118, Final residual = 0.00549804, No Iterations 220
time step continuity errors : sum local = 299.063, global = -0.156574, cumulative = -4.50496
DILUPBiCGStab:  Solving for epsilon, Initial residual = 0, Final residual = 0, No Iterations 0
DILUPBiCGStab:  Solving for k, Initial residual = 0.0686883, Final residual = 0.00479327, No Iterations 1
ExecutionTime = 0.74 s  ClockTime = 1 s

Time = 10

DILUPBiCGStab:  Solving for Ux, Initial residual = 0.119061, Final residual = 0.00787362, No Iterations 1
DILUPBiCGStab:  Solving for Uy, Initial residual = 0.168913, Final residual = 0.0120319, No Iterations 1
DILUPBiCGStab:  Solving for Uz, Initial residual = 0.254075, Final residual = 0.0122171, No Iterations 1
DILUPBiCGStab:  Solving for e, Initial residual = 0.0399736, Final residual = 0.000431429, No Iterations 1
DICPCG:  Solving for p_rgh, Initial residual = 0.621285, Final residual = 0.00470704, No Iterations 216
time step continuity errors : sum local = 181.844, global = 0.187313, cumulative = -4.31765
DILUPBiCGStab:  Solving for epsilon, Initial residual = 0, Final residual = 0, No Iterations 0
DILUPBiCGStab:  Solving for k, Initial residual = 0.0661311, Final residual = 0.00445955, No Iterations 1
ExecutionTime = 0.8 s  ClockTime = 1 s

Time = 11

DILUPBiCGStab:  Solving for Ux, Initial residual = 0.163922, Final residual = 0.0150498, No Iterations 1
DILUPBiCGStab:  Solving for Uy, Initial residual = 0.214132, Final residual = 0.0161013, No Iterations 1
DILUPBiCGStab:  Solving for Uz, Initial residual = 0.258372, Final residual = 0.0114007, No Iterations 1
DILUPBiCGStab:  Solving for e, Initial residual = 0.0345131, Final residual = 0.000386326, No Iterations 1
DICPCG:  Solving for p_rgh, Initial residual = 0.676029, Final residual = 0.00665476, No Iterations 212
time step continuity errors : sum local = 185.035, global = 0.156799, cumulative = -4.16085
DILUPBiCGStab:  Solving for epsilon, Initial residual = 0, Final residual = 0, No Iterations 0
DILUPBiCGStab:  Solving for k, Initial residual = 0.0610349, Final residual = 0.00438904, No Iterations 1
ExecutionTime = 0.86 s  ClockTime = 1 s

Time = 12

DILUPBiCGStab:  Solving for Ux, Initial residual = 0.18793, Final residual = 0.018682, No Iterations 1
DILUPBiCGStab:  Solving for Uy, Initial residual = 0.234506, Final residual = 0.0194084, No Iterations 1
DILUPBiCGStab:  Solving for Uz, Initial residual = 0.248509, Final residual = 0.0119114, No Iterations 1
DILUPBiCGStab:  Solving for e, Initial residual = 0.0308724, Final residual = 0.000413173, No Iterations 1
DICPCG:  Solving for p_rgh, Initial residual = 0.663835, Final residual = 0.00571071, No Iterations 215
time step continuity errors : sum local = 175.544, global = 0.133571, cumulative = -4.02728
DILUPBiCGStab:  Solving for epsilon, Initial residual = 0, Final residual = 0, No Iterations 0
DILUPBiCGStab:  Solving for k, Initial residual = 0.0554184, Final residual = 0.00460814, No Iterations 1
ExecutionTime = 0.93 s  ClockTime = 1 s

Time = 13

DILUPBiCGStab:  Solving for Ux, Initial residual = 0.105113, Final residual = 0.00949468, No Iterations 1
DILUPBiCGStab:  Solving for Uy, Initial residual = 0.148921, Final residual = 0.0100476, No Iterations 1
DILUPBiCGStab:  Solving for Uz, Initial residual = 0.231794, Final residual = 0.00342881, No Iterations 1
DILUPBiCGStab:  Solving for e, Initial residual = 0.0277941, Final residual = 0.000397529, No Iterations 1
DICPCG:  Solving for p_rgh, Initial residual = 0.666645, Final residual = 0.00554993, No Iterations 215
time step continuity errors : sum local = 143.454, global = 0.228777, cumulative = -3.79851
DILUPBiCGStab:  Solving for epsilon, Initial residual = 0, Final residual = 0, No Iterations 0
DILUPBiCGStab:  Solving for k, Initial residual = 0.0521059, Final residual = 0.0044892, No Iterations 1
ExecutionTime = 1 s  ClockTime = 1 s

Time = 14

DILUPBiCGStab:  Solving for Ux, Initial residual = 0.103475, Final residual = 0.0101625, No Iterations 1
DILUPBiCGStab:  Solving for Uy, Initial residual = 0.162198, Final residual = 0.013423, No Iterations 1
DILUPBiCGStab:  Solving for Uz, Initial residual = 0.211365, Final residual = 0.0175847, No Iterations 1
DILUPBiCGStab:  Solving for e, Initial residual = 0.0253431, Final residual = 0.000329298, No Iterations 1
DICPCG:  Solving for p_rgh, Initial residual = 0.400608, Final residual = 0.00350551, No Iterations 193
time step continuity errors : sum local = 111.402, global = 5.82108, cumulative = 2.02257
DILUPBiCGStab:  Solving for epsilon, Initial residual = 0, Final residual = 0, No Iterations 0
DILUPBiCGStab:  Solving for k, Initial residual = 0.0447444, Final residual = 0.00406346, No Iterations 1
ExecutionTime = 1.05 s  ClockTime = 1 s

Time = 15

DILUPBiCGStab:  Solving for Ux, Initial residual = 0.12042, Final residual = 0.00144566, No Iterations 1
DILUPBiCGStab:  Solving for Uy, Initial residual = 0.147282, Final residual = 0.0128171, No Iterations 1
DILUPBiCGStab:  Solving for Uz, Initial residual = 0.159109, Final residual = 0.0099902, No Iterations 1
DILUPBiCGStab:  Solving for e, Initial residual = 0.0242952, Final residual = 0.000280232, No Iterations 1
DICPCG:  Solving for p_rgh, Initial residual = 0.418067, Final residual = 0.00398366, No Iterations 217
time step continuity errors : sum local = 137.812, global = 0.0848341, cumulative = 2.1074
DILUPBiCGStab:  Solving for epsilon, Initial residual = 0, Final residual = 0, No Iterations 0
DILUPBiCGStab:  Solving for k, Initial residual = 0.0405627, Final residual = 0.00355364, No Iterations 1
ExecutionTime = 1.11 s  ClockTime = 1 s

Time = 16

DILUPBiCGStab:  Solving for Ux, Initial residual = 0.0609561, Final residual = 0.00403939, No Iterations 1
DILUPBiCGStab:  Solving for Uy, Initial residual = 0.0948544, Final residual = 0.00792212, No Iterations 1
DILUPBiCGStab:  Solving for Uz, Initial residual = 0.143911, Final residual = 0.00898242, No Iterations 1
DILUPBiCGStab:  Solving for e, Initial residual = 0.0243167, Final residual = 0.000237266, No Iterations 1
DICPCG:  Solving for p_rgh, Initial residual = 0.521531, Final residual = 0.00388519, No Iterations 210
time step continuity errors : sum local = 92.9038, global = 0.100551, cumulative = 2.20796
DILUPBiCGStab:  Solving for epsilon, Initial residual = 0, Final residual = 0, No Iterations 0
DILUPBiCGStab:  Solving for k, Initial residual = 0.0385962, Final residual = 0.00347702, No Iterations 1
ExecutionTime = 1.17 s  ClockTime = 1 s

Time = 17

DILUPBiCGStab:  Solving for Ux, Initial residual = 0.0703492, Final residual = 0.00643672, No Iterations 1
DILUPBiCGStab:  Solving for Uy, Initial residual = 0.10625, Final residual = 0.00859956, No Iterations 1
DILUPBiCGStab:  Solving for Uz, Initial residual = 0.1496, Final residual = 0.00732302, No Iterations 1
DILUPBiCGStab:  Solving for e, Initial residual = 0.0237584, Final residual = 0.000219949, No Iterations 1
DICPCG:  Solving for p_rgh, Initial residual = 0.593191, Final residual = 0.0057609, No Iterations 101
time step continuity errors : sum local = 92.3909, global = 21.6749, cumulative = 23.8829
DILUPBiCGStab:  Solving for epsilon, Initial residual = 0, Final residual = 0, No Iterations 0
DILUPBiCGStab:  Solving for k, Initial residual = 0.0360222, Final residual = 0.00338325, No Iterations 1
ExecutionTime = 1.23 s  ClockTime = 1 s

Time = 18

DILUPBiCGStab:  Solving for Ux, Initial residual = 0.0754024, Final residual = 0.00684724, No Iterations 1
DILUPBiCGStab:  Solving for Uy, Initial residual = 0.0933984, Final residual = 0.00655189, No Iterations 1
DILUPBiCGStab:  Solving for Uz, Initial residual = 0.133402, Final residual = 0.00858647, No Iterations 1
DILUPBiCGStab:  Solving for e, Initial residual = 0.0237858, Final residual = 0.000223431, No Iterations 1
DICPCG:  Solving for p_rgh, Initial residual = 0.630057, Final residual = 0.00508999, No Iterations 211
time step continuity errors : sum local = 73.7743, global = 0.0652621, cumulative = 23.9481
DILUPBiCGStab:  Solving for epsilon, Initial residual = 0, Final residual = 0, No Iterations 0
DILUPBiCGStab:  Solving for k, Initial residual = 0.0345503, Final residual = 0.00321724, No Iterations 1
ExecutionTime = 1.29 s  ClockTime = 1 s

Time = 19

DILUPBiCGStab:  Solving for Ux, Initial residual = 0.0478277, Final residual = 0.00340346, No Iterations 1
DILUPBiCGStab:  Solving for Uy, Initial residual = 0.0694329, Final residual = 0.00528111, No Iterations 1
DILUPBiCGStab:  Solving for Uz, Initial residual = 0.115265, Final residual = 0.00612149, No Iterations 1
DILUPBiCGStab:  Solving for e, Initial residual = 0.0243618, Final residual = 0.000227994, No Iterations 1
DICPCG:  Solving for p_rgh, Initial residual = 0.533096, Final residual = 0.00409774, No Iterations 213
time step continuity errors : sum local = 66.0747, global = -0.0125071, cumulative = 23.9356
DILUPBiCGStab:  Solving for epsilon, Initial residual = 0, Final residual = 0, No Iterations 0
DILUPBiCGStab:  Solving for k, Initial residual = 0.0331373, Final residual = 0.00286144, No Iterations 1
ExecutionTime = 1.35 s  ClockTime = 1 s

Time = 20

DILUPBiCGStab:  Solving for Ux, Initial residual = 0.046397, Final residual = 0.00248402, No Iterations 1
DILUPBiCGStab:  Solving for Uy, Initial residual = 0.0666648, Final residual = 0.00410479, No Iterations 1
DILUPBiCGStab:  Solving for Uz, Initial residual = 0.153915, Final residual = 0.0107576, No Iterations 1
DILUPBiCGStab:  Solving for e, Initial residual = 0.0243535, Final residual = 0.000229036, No Iterations 1
DICPCG:  Solving for p_rgh, Initial residual = 0.393942, Final residual = 0.00348095, No Iterations 211
time step continuity errors : sum local = 59.9483, global = 0.0613936, cumulative = 23.997
DILUPBiCGStab:  Solving for epsilon, Initial residual = 0, Final residual = 0, No Iterations 0
DILUPBiCGStab:  Solving for k, Initial residual = 0.030636, Final residual = 0.00256538, No Iterations 1
ExecutionTime = 1.41 s  ClockTime = 1 s

Time = 21

DILUPBiCGStab:  Solving for Ux, Initial residual = 0.0507865, Final residual = 0.00321163, No Iterations 1
DILUPBiCGStab:  Solving for Uy, Initial residual = 0.0610379, Final residual = 0.00372332, No Iterations 1
DILUPBiCGStab:  Solving for Uz, Initial residual = 0.112174, Final residual = 0.00633419, No Iterations 1
DILUPBiCGStab:  Solving for e, Initial residual = 0.0243617, Final residual = 0.000246777, No Iterations 1
DICPCG:  Solving for p_rgh, Initial residual = 0.372301, Final residual = 0.00267542, No Iterations 213
time step continuity errors : sum local = 47.0183, global = -0.0306136, cumulative = 23.9664
DILUPBiCGStab:  Solving for epsilon, Initial residual = 0, Final residual = 0, No Iterations 0
DILUPBiCGStab:  Solving for k, Initial residual = 0.0287421, Final residual = 0.00229902, No Iterations 1
ExecutionTime = 1.47 s  ClockTime = 1 s

Time = 22

DILUPBiCGStab:  Solving for Ux, Initial residual = 0.0352824, Final residual = 0.00155556, No Iterations 1
DILUPBiCGStab:  Solving for Uy, Initial residual = 0.0516151, Final residual = 0.00325062, No Iterations 1
DILUPBiCGStab:  Solving for Uz, Initial residual = 0.099298, Final residual = 0.00561375, No Iterations 1
DILUPBiCGStab:  Solving for e, Initial residual = 0.0242237, Final residual = 0.000269964, No Iterations 1
DICPCG:  Solving for p_rgh, Initial residual = 0.392527, Final residual = 0.00383287, No Iterations 190
time step continuity errors : sum local = 58.8893, global = -1.59765, cumulative = 22.3688
DILUPBiCGStab:  Solving for epsilon, Initial residual = 0, Final residual = 0, No Iterations 0
DILUPBiCGStab:  Solving for k, Initial residual = 0.0275157, Final residual = 0.00205145, No Iterations 1
ExecutionTime = 1.53 s  ClockTime = 1 s

Time = 23

DILUPBiCGStab:  Solving for Ux, Initial residual = 0.0353872, Final residual = 0.00202274, No Iterations 1
DILUPBiCGStab:  Solving for Uy, Initial residual = 0.0493, Final residual = 0.00336443, No Iterations 1
DILUPBiCGStab:  Solving for Uz, Initial residual = 0.103655, Final residual = 0.00474643, No Iterations 1
DILUPBiCGStab:  Solving for e, Initial residual = 0.0239542, Final residual = 0.000294163, No Iterations 1
DICPCG:  Solving for p_rgh, Initial residual = 0.398823, Final residual = 0.00374134, No Iterations 210
time step continuity errors : sum local = 47.3117, global = 0.052029, cumulative = 22.4208
DILUPBiCGStab:  Solving for epsilon, Initial residual = 0, Final residual = 0, No Iterations 0
DILUPBiCGStab:  Solving for k, Initial residual = 0.0264868, Final residual = 0.00193503, No Iterations 1
ExecutionTime = 1.59 s  ClockTime = 1 s

Time = 24

DILUPBiCGStab:  Solving for Ux, Initial residual = 0.0368485, Final residual = 0.0023824, No Iterations 1
DILUPBiCGStab:  Solving for Uy, Initial residual = 0.0436993, Final residual = 0.00325717, No Iterations 1
DILUPBiCGStab:  Solving for Uz, Initial residual = 0.0871874, Final residual = 0.00448331, No Iterations 1
DILUPBiCGStab:  Solving for e, Initial residual = 0.0236434, Final residual = 0.000339339, No Iterations 1
DICPCG:  Solving for p_rgh, Initial residual = 0.405295, Final residual = 0.00296493, No Iterations 219
time step continuity errors : sum local = 35.0512, global = -0.0207316, cumulative = 22.4
DILUPBiCGStab:  Solving for epsilon, Initial residual = 0, Final residual = 0, No Iterations 0
DILUPBiCGStab:  Solving for k, Initial residual = 0.0255595, Final residual = 0.00172181, No Iterations 1
ExecutionTime = 1.65 s  ClockTime = 2 s

Time = 25

DILUPBiCGStab:  Solving for Ux, Initial residual = 0.0293685, Final residual = 0.0014586, No Iterations 1
DILUPBiCGStab:  Solving for Uy, Initial residual = 0.0389893, Final residual = 0.00270883, No Iterations 1
DILUPBiCGStab:  Solving for Uz, Initial residual = 0.0887908, Final residual = 0.00477503, No Iterations 1
DILUPBiCGStab:  Solving for e, Initial residual = 0.023484, Final residual = 0.00038671, No Iterations 1
DICPCG:  Solving for p_rgh, Initial residual = 0.376105, Final residual = 0.00320289, No Iterations 211
time step continuity errors : sum local = 37.8005, global = 0.0388706, cumulative = 22.4389
DILUPBiCGStab:  Solving for epsilon, Initial residual = 0, Final residual = 0, No Iterations 0
DILUPBiCGStab:  Solving for k, Initial residual = 0.0251593, Final residual = 0.00160819, No Iterations 1
ExecutionTime = 1.71 s  ClockTime = 2 s

Time = 26

DILUPBiCGStab:  Solving for Ux, Initial residual = 0.0307134, Final residual = 0.00160429, No Iterations 1
DILUPBiCGStab:  Solving for Uy, Initial residual = 0.0386599, Final residual = 0.00242925, No Iterations 1
DILUPBiCGStab:  Solving for Uz, Initial residual = 0.096299, Final residual = 0.00590375, No Iterations 1
DILUPBiCGStab:  Solving for e, Initial residual = 0.023368, Final residual = 0.00043822, No Iterations 1
DICPCG:  Solving for p_rgh, Initial residual = 0.333031, Final residual = 0.00321859, No Iterations 100
time step continuity errors : sum local = 38.1102, global = -4.32703, cumulative = 18.1119
DILUPBiCGStab:  Solving for epsilon, Initial residual = 0, Final residual = 0, No Iterations 0
DILUPBiCGStab:  Solving for k, Initial residual = 0.0240614, Final residual = 0.00149599, No Iterations 1
ExecutionTime = 1.75 s  ClockTime = 2 s

Time = 27

DILUPBiCGStab:  Solving for Ux, Initial residual = 0.0308833, Final residual = 0.00179111, No Iterations 1
DILUPBiCGStab:  Solving for Uy, Initial residual = 0.0382741, Final residual = 0.0024323, No Iterations 1
DILUPBiCGStab:  Solving for Uz, Initial residual = 0.0925999, Final residual = 0.00480736, No Iterations 1
DILUPBiCGStab:  Solving for e, Initial residual = 0.0235263, Final residual = 0.000493866, No Iterations 1
DICPCG:  Solving for p_rgh, Initial residual = 0.314742, Final residual = 0.00303203, No Iterations 103
time step continuity errors : sum local = 35.8865, global = 4.96167, cumulative = 23.0736
DILUPBiCGStab:  Solving for epsilon, Initial residual = 0, Final residual = 0, No Iterations 0
DILUPBiCGStab:  Solving for k, Initial residual = 0.0228107, Final residual = 0.0012578, No Iterations 1
ExecutionTime = 1.8 s  ClockTime = 2 s

Time = 28

DILUPBiCGStab:  Solving for Ux, Initial residual = 0.0277029, Final residual = 0.00146986, No Iterations 1
DILUPBiCGStab:  Solving for Uy, Initial residual = 0.0393104, Final residual = 0.00233995, No Iterations 1
DILUPBiCGStab:  Solving for Uz, Initial residual = 0.0889558, Final residual = 0.00433671, No Iterations 1
DILUPBiCGStab:  Solving for e, Initial residual = 0.0235793, Final residual = 0.000532923, No Iterations 1
DICPCG:  Solving for p_rgh, Initial residual = 0.305027, Final residual = 0.0025073, No Iterations 211
time step continuity errors : sum local = 28.4145, global = -0.0210797, cumulative = 23.0525
DILUPBiCGStab:  Solving for epsilon, Initial residual = 0, Final residual = 0, No Iterations 0
DILUPBiCGStab:  Solving for k, Initial residual = 0.0219111, Final residual = 0.00111806, No Iterations 1
ExecutionTime = 1.86 s  ClockTime = 2 s

Time = 29

DILUPBiCGStab:  Solving for Ux, Initial residual = 0.0272079, Final residual = 0.00159109, No Iterations 1
DILUPBiCGStab:  Solving for Uy, Initial residual = 0.038612, Final residual = 0.00235984, No Iterations 1
DILUPBiCGStab:  Solving for Uz, Initial residual = 0.0821699, Final residual = 0.00420684, No Iterations 1
DILUPBiCGStab:  Solving for e, Initial residual = 0.0236933, Final residual = 0.000572314, No Iterations 1
DICPCG:  Solving for p_rgh, Initial residual = 0.295504, Final residual = 0.00243271, No Iterations 156
time step continuity errors : sum local = 25.2616, global = 2.38526, cumulative = 25.4377
DILUPBiCGStab:  Solving for epsilon, Initial residual = 0, Final residual = 0, No Iterations 0
DILUPBiCGStab:  Solving for k, Initial residual = 0.020515, Final residual = 0.000996377, No Iterations 1
ExecutionTime = 1.91 s  ClockTime = 2 s

Time = 30

DILUPBiCGStab:  Solving for Ux, Initial residual = 0.0270901, Final residual = 0.00167007, No Iterations 1
DILUPBiCGStab:  Solving for Uy, Initial residual = 0.0373701, Final residual = 0.00215621, No Iterations 1
DILUPBiCGStab:  Solving for Uz, Initial residual = 0.072097, Final residual = 0.00397397, No Iterations 1
DILUPBiCGStab:  Solving for e, Initial residual = 0.023293, Final residual = 0.000610084, No Iterations 1
DICPCG:  Solving for p_rgh, Initial residual = 0.282779, Final residual = 0.00266144, No Iterations 142
time step continuity errors : sum local = 27.1154, global = -7.08505, cumulative = 18.3527
DILUPBiCGStab:  Solving for epsilon, Initial residual = 0, Final residual = 0, No Iterations 0
DILUPBiCGStab:  Solving for k, Initial residual = 0.0198208, Final residual = 0.000894431, No Iterations 1
ExecutionTime = 1.96 s  ClockTime = 2 s

Time = 31

DILUPBiCGStab:  Solving for Ux, Initial residual = 0.0260838, Final residual = 0.00151561, No Iterations 1
DILUPBiCGStab:  Solving for Uy, Initial residual = 0.0374054, Final residual = 0.00213218, No Iterations 1
DILUPBiCGStab:  Solving for Uz, Initial residual = 0.0775639, Final residual = 0.00427808, No Iterations 1
DILUPBiCGStab:  Solving for e, Initial residual = 0.0228034, Final residual = 0.000648377, No Iterations 1
DICPCG:  Solving for p_rgh, Initial residual = 0.277276, Final residual = 0.00251011, No Iterations 208
time step continuity errors : sum local = 24.0666, global = 0.0248023, cumulative = 18.3775
DILUPBiCGStab:  Solving for epsilon, Initial residual = 0, Final residual = 0, No Iterations 0
DILUPBiCGStab:  Solving for k, Initial residual = 0.0189712, Final residual = 0.000819974, No Iterations 1
ExecutionTime = 2.02 s  ClockTime = 2 s

Time = 32

DILUPBiCGStab:  Solving for Ux, Initial residual = 0.0249505, Final residual = 0.00137419, No Iterations 1
DILUPBiCGStab:  Solving for Uy, Initial residual = 0.0346071, Final residual = 0.00186283, No Iterations 1
DILUPBiCGStab:  Solving for Uz, Initial residual = 0.0758653, Final residual = 0.0052226, No Iterations 1
DILUPBiCGStab:  Solving for e, Initial residual = 0.0219896, Final residual = 0.000690076, No Iterations 1
DICPCG:  Solving for p_rgh, Initial residual = 0.218233, Final residual = 0.00190376, No Iterations 206
time step continuity errors : sum local = 21.0945, global = -0.0827109, cumulative = 18.2948
DILUPBiCGStab:  Solving for epsilon, Initial residual = 0, Final residual = 0, No Iterations 0
DILUPBiCGStab:  Solving for k, Initial residual = 0.0181334, Final residual = 0.000758999, No Iterations 1
ExecutionTime = 2.08 s  ClockTime = 2 s

Time = 33

DILUPBiCGStab:  Solving for Ux, Initial residual = 0.0246964, Final residual = 0.00136709, No Iterations 1
DILUPBiCGStab:  Solving for Uy, Initial residual = 0.033295, Final residual = 0.00182093, No Iterations 1
DILUPBiCGStab:  Solving for Uz, Initial residual = 0.0703482, Final residual = 0.0051715, No Iterations 1
DILUPBiCGStab:  Solving for e, Initial residual = 0.0213056, Final residual = 0.000709084, No Iterations 1
DICPCG:  Solving for p_rgh, Initial residual = 0.180019, Final residual = 0.0017472, No Iterations 155
time step continuity errors : sum local = 23.0025, global = -0.289967, cumulative = 18.0048
DILUPBiCGStab:  Solving for epsilon, Initial residual = 0, Final residual = 0, No Iterations 0
DILUPBiCGStab:  Solving for k, Initial residual = 0.0172417, Final residual = 0.000667004, No Iterations 1
ExecutionTime = 2.13 s  ClockTime = 2 s

Time = 34

DILUPBiCGStab:  Solving for Ux, Initial residual = 0.0228139, Final residual = 0.00123693, No Iterations 1
DILUPBiCGStab:  Solving for Uy, Initial residual = 0.0317155, Final residual = 0.00151707, No Iterations 1
DILUPBiCGStab:  Solving for Uz, Initial residual = 0.0708812, Final residual = 0.0049155, No Iterations 1
DILUPBiCGStab:  Solving for e, Initial residual = 0.0210868, Final residual = 0.00067039, No Iterations 1
DICPCG:  Solving for p_rgh, Initial residual = 0.186445, Final residual = 0.00176732, No Iterations 153
time step continuity errors : sum local = 21.3945, global = 2.05098, cumulative = 20.0558
DILUPBiCGStab:  Solving for epsilon, Initial residual = 0, Final residual = 0, No Iterations 0
DILUPBiCGStab:  Solving for k, Initial residual = 0.0159976, Final residual = 0.000644902, No Iterations 1
ExecutionTime = 2.18 s  ClockTime = 2 s

Time = 35

DILUPBiCGStab:  Solving for Ux, Initial residual = 0.0218132, Final residual = 0.0011992, No Iterations 1
DILUPBiCGStab:  Solving for Uy, Initial residual = 0.0299578, Final residual = 0.00161996, No Iterations 1
DILUPBiCGStab:  Solving for Uz, Initial residual = 0.0698783, Final residual = 0.00485736, No Iterations 1
DILUPBiCGStab:  Solving for e, Initial residual = 0.0206235, Final residual = 0.000637174, No Iterations 1
DICPCG:  Solving for p_rgh, Initial residual = 0.166812, Final residual = 0.0016098, No Iterations 157
time step continuity errors : sum local = 19.0385, global = -1.80154, cumulative = 18.2543
DILUPBiCGStab:  Solving for epsilon, Initial residual = 0, Final residual = 0, No Iterations 0
DILUPBiCGStab:  Solving for k, Initial residual = 0.0149382, Final residual = 0.000635199, No Iterations 1
ExecutionTime = 2.23 s  ClockTime = 2 s

Time = 36

DILUPBiCGStab:  Solving for Ux, Initial residual = 0.0208516, Final residual = 0.00117246, No Iterations 1
DILUPBiCGStab:  Solving for Uy, Initial residual = 0.0300442, Final residual = 0.00167475, No Iterations 1
DILUPBiCGStab:  Solving for Uz, Initial residual = 0.0816731, Final residual = 0.00451071, No Iterations 1
DILUPBiCGStab:  Solving for e, Initial residual = 0.0200531, Final residual = 0.000613494, No Iterations 1
DICPCG:  Solving for p_rgh, Initial residual = 0.173449, Final residual = 0.00149539, No Iterations 210
time step continuity errors : sum local = 16.6041, global = -0.00171233, cumulative = 18.2525
DILUPBiCGStab:  Solving for epsilon, Initial residual = 0, Final residual = 0, No Iterations 0
DILUPBiCGStab:  Solving for k, Initial residual = 0.013954, Final residual = 0.000635238, No Iterations 1
ExecutionTime = 2.29 s  ClockTime = 2 s

Time = 37

DILUPBiCGStab:  Solving for Ux, Initial residual = 0.0186448, Final residual = 0.000899271, No Iterations 1
DILUPBiCGStab:  Solving for Uy, Initial residual = 0.0294717, Final residual = 0.00149019, No Iterations 1
DILUPBiCGStab:  Solving for Uz, Initial residual = 0.0723854, Final residual = 0.00405052, No Iterations 1
DILUPBiCGStab:  Solving for e, Initial residual = 0.0192902, Final residual = 0.000562458, No Iterations 1
DICPCG:  Solving for p_rgh, Initial residual = 0.147385, Final residual = 0.00119049, No Iterations 210
time step continuity errors : sum local = 14.7864, global = 0.00384977, cumulative = 18.2564
DILUPBiCGStab:  Solving for epsilon, Initial residual = 0, Final residual = 0, No Iterations 0
DILUPBiCGStab:  Solving for k, Initial residual = 0.0131086, Final residual = 0.000654315, No Iterations 1
ExecutionTime = 2.35 s  ClockTime = 2 s

Time = 38

DILUPBiCGStab:  Solving for Ux, Initial residual = 0.0172844, Final residual = 0.000711913, No Iterations 1
DILUPBiCGStab:  Solving for Uy, Initial residual = 0.0291604, Final residual = 0.001368, No Iterations 1
DILUPBiCGStab:  Solving for Uz, Initial residual = 0.0690832, Final residual = 0.00364787, No Iterations 1
DILUPBiCGStab:  Solving for e, Initial residual = 0.0186344, Final residual = 0.00053429, No Iterations 1
DICPCG:  Solving for p_rgh, Initial residual = 0.106635, Final residual = 0.000882658, No Iterations 208
time step continuity errors : sum local = 13.3656, global = -0.00536357, cumulative = 18.251
DILUPBiCGStab:  Solving for epsilon, Initial residual = 0, Final residual = 0, No Iterations 0
DILUPBiCGStab:  Solving for k, Initial residual = 0.0124339, Final residual = 0.000700837, No Iterations 1
ExecutionTime = 2.41 s  ClockTime = 2 s

Time = 39

DILUPBiCGStab:  Solving for Ux, Initial residual = 0.0166375, Final residual = 0.000599075, No Iterations 1
DILUPBiCGStab:  Solving for Uy, Initial residual = 0.029586, Final residual = 0.00128931, No Iterations 1
DILUPBiCGStab:  Solving for Uz, Initial residual = 0.0653131, Final residual = 0.00347812, No Iterations 1
DILUPBiCGStab:  Solving for e, Initial residual = 0.0180989, Final residual = 0.000503899, No Iterations 1
DICPCG:  Solving for p_rgh, Initial residual = 0.0768994, Final residual = 0.000686079, No Iterations 171
time step continuity errors : sum local = 14.0405, global = -3.52212, cumulative = 14.7289
DILUPBiCGStab:  Solving for epsilon, Initial residual = 0, Final residual = 0, No Iterations 0
DILUPBiCGStab:  Solving for k, Initial residual = 0.0118634, Final residual = 0.000747999, No Iterations 1
ExecutionTime = 2.46 s  ClockTime = 2 s

Time = 40

DILUPBiCGStab:  Solving for Ux, Initial residual = 0.0160886, Final residual = 0.000574483, No Iterations 1
DILUPBiCGStab:  Solving for Uy, Initial residual = 0.0298802, Final residual = 0.0013683, No Iterations 1
DILUPBiCGStab:  Solving for Uz, Initial residual = 0.0697982, Final residual = 0.00371319, No Iterations 1
DILUPBiCGStab:  Solving for e, Initial residual = 0.0177133, Final residual = 0.000481844, No Iterations 1
DICPCG:  Solving for p_rgh, Initial residual = 0.0743819, Final residual = 0.000576675, No Iterations 210
time step continuity errors : sum local = 10.965, global = -0.00804563, cumulative = 14.7209
DILUPBiCGStab:  Solving for epsilon, Initial residual = 0, Final residual = 0, No Iterations 0
DILUPBiCGStab:  Solving for k, Initial residual = 0.0114684, Final residual = 0.000785626, No Iterations 1
ExecutionTime = 2.52 s  ClockTime = 2 s

Time = 41

DILUPBiCGStab:  Solving for Ux, Initial residual = 0.0162061, Final residual = 0.000570284, No Iterations 1
DILUPBiCGStab:  Solving for Uy, Initial residual = 0.0306055, Final residual = 0.00156794, No Iterations 1
DILUPBiCGStab:  Solving for Uz, Initial residual = 0.0607569, Final residual = 0.00370817, No Iterations 1
DILUPBiCGStab:  Solving for e, Initial residual = 0.0175381, Final residual = 0.000462979, No Iterations 1
DICPCG:  Solving for p_rgh, Initial residual = 0.0795441, Final residual = 0.000712149, No Iterations 213
time step continuity errors : sum local = 11.1191, global = -0.000720245, cumulative = 14.7201
DILUPBiCGStab:  Solving for epsilon, Initial residual = 0, Final residual = 0, No Iterations 0
DILUPBiCGStab:  Solving for k, Initial residual = 0.0110716, Final residual = 0.00080383, No Iterations 1
ExecutionTime = 2.58 s  ClockTime = 2 s

Time = 42

DILUPBiCGStab:  Solving for Ux, Initial residual = 0.01622, Final residual = 0.000611675, No Iterations 1
DILUPBiCGStab:  Solving for Uy, Initial residual = 0.030459, Final residual = 0.00178231, No Iterations 1
DILUPBiCGStab:  Solving for Uz, Initial residual = 0.0579186, Final residual = 0.0037818, No Iterations 1
DILUPBiCGStab:  Solving for e, Initial residual = 0.017098, Final residual = 0.000466883, No Iterations 1
DICPCG:  Solving for p_rgh, Initial residual = 0.0818149, Final residual = 0.000717076, No Iterations 214
time step continuity errors : sum local = 9.81702, global = -0.000723322, cumulative = 14.7194
DILUPBiCGStab:  Solving for epsilon, Initial residual = 0, Final residual = 0, No Iterations 0
DILUPBiCGStab:  Solving for k, Initial residual = 0.0107896, Final residual = 0.000801553, No Iterations 1
ExecutionTime = 2.64 s  ClockTime = 3 s

Time = 43

DILUPBiCGStab:  Solving for Ux, Initial residual = 0.0159297, Final residual = 0.000661996, No Iterations 1
DILUPBiCGStab:  Solving for Uy, Initial residual = 0.0294845, Final residual = 0.00197659, No Iterations 1
DILUPBiCGStab:  Solving for Uz, Initial residual = 0.0561893, Final residual = 0.003669, No Iterations 1
DILUPBiCGStab:  Solving for e, Initial residual = 0.0167918, Final residual = 0.000461546, No Iterations 1
DICPCG:  Solving for p_rgh, Initial residual = 0.0834417, Final residual = 0.000654704, No Iterations 212
time step continuity errors : sum local = 8.58162, global = -0.00115032, cumulative = 14.7183
DILUPBiCGStab:  Solving for epsilon, Initial residual = 0, Final residual = 0, No Iterations 0
DILUPBiCGStab:  Solving for k, Initial residual = 0.010471, Final residual = 0.000773581, No Iterations 1
ExecutionTime = 2.7 s  ClockTime = 3 s

Time = 44

DILUPBiCGStab:  Solving for Ux, Initial residual = 0.0157611, Final residual = 0.000731757, No Iterations 1
DILUPBiCGStab:  Solving for Uy, Initial residual = 0.0282302, Final residual = 0.00212575, No Iterations 1
DILUPBiCGStab:  Solving for Uz, Initial residual = 0.0538495, Final residual = 0.00354297, No Iterations 1
DILUPBiCGStab:  Solving for e, Initial residual = 0.0163786, Final residual = 0.000452159, No Iterations 1
DICPCG:  Solving for p_rgh, Initial residual = 0.0869251, Final residual = 0.000825667, No Iterations 212
time step continuity errors : sum local = 10.1609, global = 0.00151608, cumulative = 14.7198
DILUPBiCGStab:  Solving for epsilon, Initial residual = 0, Final residual = 0, No Iterations 0
DILUPBiCGStab:  Solving for k, Initial residual = 0.0101038, Final residual = 0.000731318, No Iterations 1
ExecutionTime = 2.76 s  ClockTime = 3 s

Time = 45

DILUPBiCGStab:  Solving for Ux, Initial residual = 0.0152932, Final residual = 0.000786854, No Iterations 1
DILUPBiCGStab:  Solving for Uy, Initial residual = 0.0266803, Final residual = 0.00230715, No Iterations 1
DILUPBiCGStab:  Solving for Uz, Initial residual = 0.0517503, Final residual = 0.00345591, No Iterations 1
DILUPBiCGStab:  Solving for e, Initial residual = 0.0158269, Final residual = 0.000439994, No Iterations 1
DICPCG:  Solving for p_rgh, Initial residual = 0.0861972, Final residual = 0.000822712, No Iterations 210
time step continuity errors : sum local = 9.91146, global = 0.0039239, cumulative = 14.7237
DILUPBiCGStab:  Solving for epsilon, Initial residual = 0, Final residual = 0, No Iterations 0
DILUPBiCGStab:  Solving for k, Initial residual = 0.00977923, Final residual = 0.000688465, No Iterations 1
ExecutionTime = 2.83 s  ClockTime = 3 s

Time = 46

DILUPBiCGStab:  Solving for Ux, Initial residual = 0.0145204, Final residual = 0.000809253, No Iterations 1
DILUPBiCGStab:  Solving for Uy, Initial residual = 0.0247798, Final residual = 0.00240905, No Iterations 1
DILUPBiCGStab:  Solving for Uz, Initial residual = 0.0498673, Final residual = 0.00333617, No Iterations 1
DILUPBiCGStab:  Solving for e, Initial residual = 0.0151137, Final residual = 0.000425314, No Iterations 1
DICPCG:  Solving for p_rgh, Initial residual = 0.08682, Final residual = 0.000681673, No Iterations 210
time step continuity errors : sum local = 8.13013, global = -0.000263479, cumulative = 14.7234
DILUPBiCGStab:  Solving for epsilon, Initial residual = 0, Final residual = 0, No Iterations 0
DILUPBiCGStab:  Solving for k, Initial residual = 0.00948446, Final residual = 0.000650686, No Iterations 1
ExecutionTime = 2.88 s  ClockTime = 3 s

Time = 47

DILUPBiCGStab:  Solving for Ux, Initial residual = 0.0136604, Final residual = 0.000787089, No Iterations 1
DILUPBiCGStab:  Solving for Uy, Initial residual = 0.0226664, Final residual = 0.00026591, No Iterations 1
DILUPBiCGStab:  Solving for Uz, Initial residual = 0.0473794, Final residual = 0.00330552, No Iterations 1
DILUPBiCGStab:  Solving for e, Initial residual = 0.0142954, Final residual = 0.000409088, No Iterations 1
DICPCG:  Solving for p_rgh, Initial residual = 0.0861974, Final residual = 0.000847405, No Iterations 136
time step continuity errors : sum local = 10.0178, global = -2.00898, cumulative = 12.7145
DILUPBiCGStab:  Solving for epsilon, Initial residual = 0, Final residual = 0, No Iterations 0
DILUPBiCGStab:  Solving for k, Initial residual = 0.00924281, Final residual = 0.000619363, No Iterations 1
ExecutionTime = 2.93 s  ClockTime = 3 s

Time = 48

DILUPBiCGStab:  Solving for Ux, Initial residual = 0.0129346, Final residual = 0.000779815, No Iterations 1
DILUPBiCGStab:  Solving for Uy, Initial residual = 0.0202527, Final residual = 0.000244288, No Iterations 1
DILUPBiCGStab:  Solving for Uz, Initial residual = 0.0472045, Final residual = 0.00329215, No Iterations 1
DILUPBiCGStab:  Solving for e, Initial residual = 0.0134703, Final residual = 0.000394054, No Iterations 1
DICPCG:  Solving for p_rgh, Initial residual = 0.0816643, Final residual = 0.000579173, No Iterations 210
time step continuity errors : sum local = 6.72312, global = -0.00792193, cumulative = 12.7065
DILUPBiCGStab:  Solving for epsilon, Initial residual = 0, Final residual = 0, No Iterations 0
DILUPBiCGStab:  Solving for k, Initial residual = 0.00904797, Final residual = 0.000593994, No Iterations 1
ExecutionTime = 3 s  ClockTime = 3 s

Time = 49

DILUPBiCGStab:  Solving for Ux, Initial residual = 0.0120871, Final residual = 0.000718264, No Iterations 1
DILUPBiCGStab:  Solving for Uy, Initial residual = 0.0176374, Final residual = 0.00174741, No Iterations 1
DILUPBiCGStab:  Solving for Uz, Initial residual = 0.0471591, Final residual = 0.00303061, No Iterations 1
DILUPBiCGStab:  Solving for e, Initial residual = 0.0125965, Final residual = 0.000373963, No Iterations 1
DICPCG:  Solving for p_rgh, Initial residual = 0.0780592, Final residual = 0.00074349, No Iterations 39
time step continuity errors : sum local = 8.54907, global = -2.99137, cumulative = 9.71517
DILUPBiCGStab:  Solving for epsilon, Initial residual = 0, Final residual = 0, No Iterations 0
DILUPBiCGStab:  Solving for k, Initial residual = 0.00891619, Final residual = 0.000581394, No Iterations 1
ExecutionTime = 3.03 s  ClockTime = 3 s

Time = 50

DILUPBiCGStab:  Solving for Ux, Initial residual = 0.0114309, Final residual = 0.000712105, No Iterations 1
DILUPBiCGStab:  Solving for Uy, Initial residual = 0.0154298, Final residual = 0.000174914, No Iterations 1
DILUPBiCGStab:  Solving for Uz, Initial residual = 0.0469172, Final residual = 0.00304487, No Iterations 1
DILUPBiCGStab:  Solving for e, Initial residual = 0.0118341, Final residual = 0.000350364, No Iterations 1
DICPCG:  Solving for p_rgh, Initial residual = 0.0742537, Final residual = 0.000510561, No Iterations 211
time step continuity errors : sum local = 5.75803, global = -0.00417676, cumulative = 9.711
DILUPBiCGStab:  Solving for epsilon, Initial residual = 0, Final residual = 0, No Iterations 0
DILUPBiCGStab:  Solving for k, Initial residual = 0.00883845, Final residual = 0.00057259, No Iterations 1
ExecutionTime = 3.1 s  ClockTime = 3 s

Time = 51

DILUPBiCGStab:  Solving for Ux, Initial residual = 0.0107355, Final residual = 0.000638126, No Iterations 1
DILUPBiCGStab:  Solving for Uy, Initial residual = 0.0137041, Final residual = 0.00122261, No Iterations 1
DILUPBiCGStab:  Solving for Uz, Initial residual = 0.047458, Final residual = 0.00295837, No Iterations 1
DILUPBiCGStab:  Solving for e, Initial residual = 0.0111213, Final residual = 0.000321569, No Iterations 1
DICPCG:  Solving for p_rgh, Initial residual = 0.0710614, Final residual = 0.000707849, No Iterations 155
time step continuity errors : sum local = 7.93347, global = -1.64596, cumulative = 8.06503
DILUPBiCGStab:  Solving for epsilon, Initial residual = 0, Final residual = 0, No Iterations 0
DILUPBiCGStab:  Solving for k, Initial residual = 0.00887909, Final residual = 0.000575365, No Iterations 1
ExecutionTime = 3.15 s  ClockTime = 3 s

Time = 52

DILUPBiCGStab:  Solving for Ux, Initial residual = 0.00999845, Final residual = 0.000627105, No Iterations 1
DILUPBiCGStab:  Solving for Uy, Initial residual = 0.0126907, Final residual = 0.00106049, No Iterations 1
DILUPBiCGStab:  Solving for Uz, Initial residual = 0.0486088, Final residual = 0.00303538, No Iterations 1
DILUPBiCGStab:  Solving for e, Initial residual = 0.0105299, Final residual = 0.000294242, No Iterations 1
DICPCG:  Solving for p_rgh, Initial residual = 0.0730869, Final residual = 0.000697309, No Iterations 158
time step continuity errors : sum local = 7.72091, global = -1.93091, cumulative = 6.13412
DILUPBiCGStab:  Solving for epsilon, Initial residual = 0, Final residual = 0, No Iterations 0
DILUPBiCGStab:  Solving for k, Initial residual = 0.00895919, Final residual = 0.000583313, No Iterations 1
ExecutionTime = 3.2 s  ClockTime = 3 s

Time = 53

DILUPBiCGStab:  Solving for Ux, Initial residual = 0.00941326, Final residual = 0.000629663, No Iterations 1
DILUPBiCGStab:  Solving for Uy, Initial residual = 0.0124695, Final residual = 0.000911061, No Iterations 1
DILUPBiCGStab:  Solving for Uz, Initial residual = 0.0487936, Final residual = 0.00310866, No Iterations 1
DILUPBiCGStab:  Solving for e, Initial residual = 0.0100307, Final residual = 0.000269841, No Iterations 1
DICPCG:  Solving for p_rgh, Initial residual = 0.0681797, Final residual = 0.000539826, No Iterations 209
time step continuity errors : sum local = 5.91042, global = -0.00801692, cumulative = 6.12611
DILUPBiCGStab:  Solving for epsilon, Initial residual = 0, Final residual = 0, No Iterations 0
DILUPBiCGStab:  Solving for k, Initial residual = 0.00900416, Final residual = 0.000590749, No Iterations 1
ExecutionTime = 3.26 s  ClockTime = 3 s

Time = 54

DILUPBiCGStab:  Solving for Ux, Initial residual = 0.00899708, Final residual = 0.000618122, No Iterations 1
DILUPBiCGStab:  Solving for Uy, Initial residual = 0.012151, Final residual = 0.000731937, No Iterations 1
DILUPBiCGStab:  Solving for Uz, Initial residual = 0.0523936, Final residual = 0.00322138, No Iterations 1
DILUPBiCGStab:  Solving for e, Initial residual = 0.00960165, Final residual = 0.000249716, No Iterations 1
DICPCG:  Solving for p_rgh, Initial residual = 0.0641473, Final residual = 0.000636463, No Iterations 37
time step continuity errors : sum local = 6.9272, global = -2.03469, cumulative = 4.09141
DILUPBiCGStab:  Solving for epsilon, Initial residual = 0, Final residual = 0, No Iterations 0
DILUPBiCGStab:  Solving for k, Initial residual = 0.00915676, Final residual = 0.000620364, No Iterations 1
ExecutionTime = 3.29 s  ClockTime = 3 s

Time = 55

DILUPBiCGStab:  Solving for Ux, Initial residual = 0.00867839, Final residual = 0.000650058, No Iterations 1
DILUPBiCGStab:  Solving for Uy, Initial residual = 0.0121065, Final residual = 0.000650354, No Iterations 1
DILUPBiCGStab:  Solving for Uz, Initial residual = 0.048082, Final residual = 0.00312769, No Iterations 1
DILUPBiCGStab:  Solving for e, Initial residual = 0.00924283, Final residual = 0.000234882, No Iterations 1
DICPCG:  Solving for p_rgh, Initial residual = 0.0630675, Final residual = 0.000601703, No Iterations 203
time step continuity errors : sum local = 6.48854, global = -0.00433624, cumulative = 4.08708
DILUPBiCGStab:  Solving for epsilon, Initial residual = 0, Final residual = 0, No Iterations 0
DILUPBiCGStab:  Solving for k, Initial residual = 0.00925042, Final residual = 0.000650796, No Iterations 1
ExecutionTime = 3.35 s  ClockTime = 3 s

Time = 56

DILUPBiCGStab:  Solving for Ux, Initial residual = 0.00860626, Final residual = 0.000673124, No Iterations 1
DILUPBiCGStab:  Solving for Uy, Initial residual = 0.0121345, Final residual = 0.000643837, No Iterations 1
DILUPBiCGStab:  Solving for Uz, Initial residual = 0.0494291, Final residual = 0.00296441, No Iterations 1
DILUPBiCGStab:  Solving for e, Initial residual = 0.00894873, Final residual = 0.000223122, No Iterations 1
DICPCG:  Solving for p_rgh, Initial residual = 0.0630487, Final residual = 0.000625531, No Iterations 111
time step continuity errors : sum local = 6.71415, global = -0.826946, cumulative = 3.26013
DILUPBiCGStab:  Solving for epsilon, Initial residual = 0, Final residual = 0, No Iterations 0
DILUPBiCGStab:  Solving for k, Initial residual = 0.00942239, Final residual = 0.000697706, No Iterations 1
ExecutionTime = 3.4 s  ClockTime = 3 s

Time = 57

DILUPBiCGStab:  Solving for Ux, Initial residual = 0.0086157, Final residual = 0.000710496, No Iterations 1
DILUPBiCGStab:  Solving for Uy, Initial residual = 0.0128673, Final residual = 0.000882372, No Iterations 1
DILUPBiCGStab:  Solving for Uz, Initial residual = 0.0468508, Final residual = 0.00295889, No Iterations 1
DILUPBiCGStab:  Solving for e, Initial residual = 0.00870482, Final residual = 0.000217199, No Iterations 1
DICPCG:  Solving for p_rgh, Initial residual = 0.0603258, Final residual = 0.000578546, No Iterations 111
time step continuity errors : sum local = 6.15331, global = -0.704638, cumulative = 2.55549
DILUPBiCGStab:  Solving for epsilon, Initial residual = 0, Final residual = 0, No Iterations 0
DILUPBiCGStab:  Solving for k, Initial residual = 0.00956612, Final residual = 0.000747446, No Iterations 1
ExecutionTime = 3.44 s  ClockTime = 3 s

Time = 58

DILUPBiCGStab:  Solving for Ux, Initial residual = 0.00868679, Final residual = 0.000749136, No Iterations 1
DILUPBiCGStab:  Solving for Uy, Initial residual = 0.0138093, Final residual = 0.00113359, No Iterations 1
DILUPBiCGStab:  Solving for Uz, Initial residual = 0.0464683, Final residual = 0.00281635, No Iterations 1
DILUPBiCGStab:  Solving for e, Initial residual = 0.0084917, Final residual = 0.000215647, No Iterations 1
DICPCG:  Solving for p_rgh, Initial residual = 0.0597969, Final residual = 0.000556217, No Iterations 38
time step continuity errors : sum local = 5.87644, global = -1.34249, cumulative = 1.213
DILUPBiCGStab:  Solving for epsilon, Initial residual = 0, Final residual = 0, No Iterations 0
DILUPBiCGStab:  Solving for k, Initial residual = 0.00975933, Final residual = 0.000818131, No Iterations 1
ExecutionTime = 3.47 s  ClockTime = 3 s

Time = 59

DILUPBiCGStab:  Solving for Ux, Initial residual = 0.00880105, Final residual = 0.000788077, No Iterations 1
DILUPBiCGStab:  Solving for Uy, Initial residual = 0.0146527, Final residual = 0.00137867, No Iterations 1
DILUPBiCGStab:  Solving for Uz, Initial residual = 0.0456348, Final residual = 0.00286767, No Iterations 1
DILUPBiCGStab:  Solving for e, Initial residual = 0.00829558, Final residual = 0.000218686, No Iterations 1
DICPCG:  Solving for p_rgh, Initial residual = 0.0608764, Final residual = 0.000446964, No Iterations 208
time step continuity errors : sum local = 4.69126, global = -0.00148909, cumulative = 1.21151
DILUPBiCGStab:  Solving for epsilon, Initial residual = 0, Final residual = 0, No Iterations 0
DILUPBiCGStab:  Solving for k, Initial residual = 0.00986742, Final residual = 0.000888471, No Iterations 1
ExecutionTime = 3.53 s  ClockTime = 3 s

Time = 60

DILUPBiCGStab:  Solving for Ux, Initial residual = 0.00902089, Final residual = 0.000838414, No Iterations 1
DILUPBiCGStab:  Solving for Uy, Initial residual = 0.0151872, Final residual = 0.000245645, No Iterations 1
DILUPBiCGStab:  Solving for Uz, Initial residual = 0.0466542, Final residual = 0.00290602, No Iterations 1
DILUPBiCGStab:  Solving for e, Initial residual = 0.00808499, Final residual = 0.000223573, No Iterations 1
DICPCG:  Solving for p_rgh, Initial residual = 0.0648704, Final residual = 0.000610739, No Iterations 40
time step continuity errors : sum local = 6.39761, global = -0.8598, cumulative = 0.351711
DILUPBiCGStab:  Solving for epsilon, Initial residual = 0, Final residual = 0, No Iterations 0
DILUPBiCGStab:  Solving for k, Initial residual = 0.0100828, Final residual = 0.000959589, No Iterations 1
ExecutionTime = 3.56 s  ClockTime = 3 s

Time = 61

DILUPBiCGStab:  Solving for Ux, Initial residual = 0.0092752, Final residual = 0.000870768, No Iterations 1
DILUPBiCGStab:  Solving for Uy, Initial residual = 0.015608, Final residual = 0.000267084, No Iterations 1
DILUPBiCGStab:  Solving for Uz, Initial residual = 0.0462461, Final residual = 0.00294696, No Iterations 1
DILUPBiCGStab:  Solving for e, Initial residual = 0.00785645, Final residual = 0.000232202, No Iterations 1
DICPCG:  Solving for p_rgh, Initial residual = 0.0679196, Final residual = 0.000563314, No Iterations 40
time step continuity errors : sum local = 5.87409, global = -0.136038, cumulative = 0.215673
DILUPBiCGStab:  Solving for epsilon, Initial residual = 0, Final residual = 0, No Iterations 0
DILUPBiCGStab:  Solving for k, Initial residual = 0.0102488, Final residual = 0.00100507, No Iterations 1
ExecutionTime = 3.59 s  ClockTime = 3 s

Time = 62

DILUPBiCGStab:  Solving for Ux, Initial residual = 0.0095547, Final residual = 0.000903332, No Iterations 1
DILUPBiCGStab:  Solving for Uy, Initial residual = 0.0159265, Final residual = 0.000294621, No Iterations 1
DILUPBiCGStab:  Solving for Uz, Initial residual = 0.0465091, Final residual = 0.00288539, No Iterations 1
DILUPBiCGStab:  Solving for e, Initial residual = 0.00757853, Final residual = 0.000238741, No Iterations 1
DICPCG:  Solving for p_rgh, Initial residual = 0.0693886, Final residual = 0.000673994, No Iterations 41
time step continuity errors : sum local = 6.98797, global = 0.00618056, cumulative = 0.221854
DILUPBiCGStab:  Solving for epsilon, Initial residual = 0, Final residual = 0, No Iterations 0
DILUPBiCGStab:  Solving for k, Initial residual = 0.0104711, Final residual = 0.00101443, No Iterations 1
ExecutionTime = 3.62 s  ClockTime = 4 s

Time = 63

DILUPBiCGStab:  Solving for Ux, Initial residual = 0.00970153, Final residual = 0.000890917, No Iterations 1
DILUPBiCGStab:  Solving for Uy, Initial residual = 0.0162511, Final residual = 0.000311204, No Iterations 1
DILUPBiCGStab:  Solving for Uz, Initial residual = 0.0471289, Final residual = 0.00289551, No Iterations 1
DILUPBiCGStab:  Solving for e, Initial residual = 0.00730548, Final residual = 0.000244463, No Iterations 1
DICPCG:  Solving for p_rgh, Initial residual = 0.0710168, Final residual = 0.000662689, No Iterations 123
time step continuity errors : sum local = 6.81604, global = 0.908908, cumulative = 1.13076
DILUPBiCGStab:  Solving for epsilon, Initial residual = 0, Final residual = 0, No Iterations 0
DILUPBiCGStab:  Solving for k, Initial residual = 0.0106468, Final residual = 0.00101069, No Iterations 1
ExecutionTime = 3.67 s  ClockTime = 4 s

Time = 64

DILUPBiCGStab:  Solving for Ux, Initial residual = 0.00974541, Final residual = 0.00088387, No Iterations 1
DILUPBiCGStab:  Solving for Uy, Initial residual = 0.0162867, Final residual = 0.000324698, No Iterations 1
DILUPBiCGStab:  Solving for Uz, Initial residual = 0.046367, Final residual = 0.00280627, No Iterations 1
DILUPBiCGStab:  Solving for e, Initial residual = 0.00705601, Final residual = 0.000250944, No Iterations 1
DICPCG:  Solving for p_rgh, Initial residual = 0.0712935, Final residual = 0.000699876, No Iterations 38
time step continuity errors : sum local = 7.16114, global = 0.844905, cumulative = 1.97567
DILUPBiCGStab:  Solving for epsilon, Initial residual = 0, Final residual = 0, No Iterations 0
DILUPBiCGStab:  Solving for k, Initial residual = 0.0108818, Final residual = 0.000987789, No Iterations 1
ExecutionTime = 3.7 s  ClockTime = 4 s

Time = 65

DILUPBiCGStab:  Solving for Ux, Initial residual = 0.0097325, Final residual = 0.0008332, No Iterations 1
DILUPBiCGStab:  Solving for Uy, Initial residual = 0.0161712, Final residual = 0.000324203, No Iterations 1
DILUPBiCGStab:  Solving for Uz, Initial residual = 0.0460131, Final residual = 0.00280388, No Iterations 1
DILUPBiCGStab:  Solving for e, Initial residual = 0.00681338, Final residual = 0.000252721, No Iterations 1
DICPCG:  Solving for p_rgh, Initial residual = 0.0739045, Final residual = 0.000732421, No Iterations 40
time step continuity errors : sum local = 7.44966, global = 1.60986, cumulative = 3.58553
DILUPBiCGStab:  Solving for epsilon, Initial residual = 0, Final residual = 0, No Iterations 0
DILUPBiCGStab:  Solving for k, Initial residual = 0.0109307, Final residual = 0.000970837, No Iterations 1
ExecutionTime = 3.73 s  ClockTime = 4 s

Time = 66

DILUPBiCGStab:  Solving for Ux, Initial residual = 0.00961787, Final residual = 0.00081177, No Iterations 1
DILUPBiCGStab:  Solving for Uy, Initial residual = 0.015819, Final residual = 0.000325676, No Iterations 1
DILUPBiCGStab:  Solving for Uz, Initial residual = 0.0460406, Final residual = 0.00278705, No Iterations 1
DILUPBiCGStab:  Solving for e, Initial residual = 0.00654268, Final residual = 0.000248845, No Iterations 1
DICPCG:  Solving for p_rgh, Initial residual = 0.0728732, Final residual = 0.000716229, No Iterations 39
time step continuity errors : sum local = 7.23683, global = 1.49036, cumulative = 5.07589
DILUPBiCGStab:  Solving for epsilon, Initial residual = 0, Final residual = 0, No Iterations 0
DILUPBiCGStab:  Solving for k, Initial residual = 0.011168, Final residual = 0.000943944, No Iterations 1
ExecutionTime = 3.76 s  ClockTime = 4 s

Time = 67

DILUPBiCGStab:  Solving for Ux, Initial residual = 0.00948989, Final residual = 0.000753056, No Iterations 1
DILUPBiCGStab:  Solving for Uy, Initial residual = 0.015503, Final residual = 0.000311663, No Iterations 1
DILUPBiCGStab:  Solving for Uz, Initial residual = 0.0455811, Final residual = 0.00284558, No Iterations 1
DILUPBiCGStab:  Solving for e, Initial residual = 0.00634867, Final residual = 0.000241493, No Iterations 1
DICPCG:  Solving for p_rgh, Initial residual = 0.0701581, Final residual = 0.000686672, No Iterations 124
time step continuity errors : sum local = 6.88064, global = 1.36644, cumulative = 6.44233
DILUPBiCGStab:  Solving for epsilon, Initial residual = 0, Final residual = 0, No Iterations 0
DILUPBiCGStab:  Solving for k, Initial residual = 0.011146, Final residual = 0.000903532, No Iterations 1
ExecutionTime = 3.8 s  ClockTime = 4 s

Time = 68

DILUPBiCGStab:  Solving for Ux, Initial residual = 0.00928469, Final residual = 0.000694074, No Iterations 1
DILUPBiCGStab:  Solving for Uy, Initial residual = 0.0151772, Final residual = 0.000300615, No Iterations 1
DILUPBiCGStab:  Solving for Uz, Initial residual = 0.0468706, Final residual = 0.00293422, No Iterations 1
DILUPBiCGStab:  Solving for e, Initial residual = 0.00616762, Final residual = 0.000228685, No Iterations 1
DICPCG:  Solving for p_rgh, Initial residual = 0.0669229, Final residual = 0.000662147, No Iterations 119
time step continuity errors : sum local = 6.58196, global = 0.962179, cumulative = 7.40451
DILUPBiCGStab:  Solving for epsilon, Initial residual = 0, Final residual = 0, No Iterations 0
DILUPBiCGStab:  Solving for k, Initial residual = 0.0111346, Final residual = 0.000887234, No Iterations 1
ExecutionTime = 3.85 s  ClockTime = 4 s

Time = 69

DILUPBiCGStab:  Solving for Ux, Initial residual = 0.00892891, Final residual = 0.00062272, No Iterations 1
DILUPBiCGStab:  Solving for Uy, Initial residual = 0.0144499, Final residual = 0.000272733, No Iterations 1
DILUPBiCGStab:  Solving for Uz, Initial residual = 0.0457719, Final residual = 0.00304872, No Iterations 1
DILUPBiCGStab:  Solving for e, Initial residual = 0.00603632, Final residual = 0.000217132, No Iterations 1
DICPCG:  Solving for p_rgh, Initial residual = 0.0671793, Final residual = 0.000659351, No Iterations 39
time step continuity errors : sum local = 6.50918, global = 0.38998, cumulative = 7.79449
DILUPBiCGStab:  Solving for epsilon, Initial residual = 0, Final residual = 0, No Iterations 0
DILUPBiCGStab:  Solving for k, Initial residual = 0.0110142, Final residual = 0.000850586, No Iterations 1
ExecutionTime = 3.88 s  ClockTime = 4 s

Time = 70

DILUPBiCGStab:  Solving for Ux, Initial residual = 0.0085903, Final residual = 0.000572737, No Iterations 1
DILUPBiCGStab:  Solving for Uy, Initial residual = 0.0136289, Final residual = 0.000249234, No Iterations 1
DILUPBiCGStab:  Solving for Uz, Initial residual = 0.0462389, Final residual = 0.00311293, No Iterations 1
DILUPBiCGStab:  Solving for e, Initial residual = 0.00591825, Final residual = 0.000203281, No Iterations 1
DICPCG:  Solving for p_rgh, Initial residual = 0.0650243, Final residual = 0.000592425, No Iterations 105
time step continuity errors : sum local = 5.80983, global = -0.367373, cumulative = 7.42711
DILUPBiCGStab:  Solving for epsilon, Initial residual = 0, Final residual = 0, No Iterations 0
DILUPBiCGStab:  Solving for k, Initial residual = 0.0109501, Final residual = 0.000830085, No Iterations 1
ExecutionTime = 3.92 s  ClockTime = 4 s

Time = 71

DILUPBiCGStab:  Solving for Ux, Initial residual = 0.00823528, Final residual = 0.000517445, No Iterations 1
DILUPBiCGStab:  Solving for Uy, Initial residual = 0.0128411, Final residual = 0.000221139, No Iterations 1
DILUPBiCGStab:  Solving for Uz, Initial residual = 0.0478091, Final residual = 0.0032738, No Iterations 1
DILUPBiCGStab:  Solving for e, Initial residual = 0.00583445, Final residual = 0.000192244, No Iterations 1
DICPCG:  Solving for p_rgh, Initial residual = 0.0641731, Final residual = 0.000610171, No Iterations 40
time step continuity errors : sum local = 5.97284, global = -1.18697, cumulative = 6.24015
DILUPBiCGStab:  Solving for epsilon, Initial residual = 0, Final residual = 0, No Iterations 0
DILUPBiCGStab:  Solving for k, Initial residual = 0.010751, Final residual = 0.000803011, No Iterations 1
ExecutionTime = 3.95 s  ClockTime = 4 s

Time = 72

DILUPBiCGStab:  Solving for Ux, Initial residual = 0.00796267, Final residual = 0.000479261, No Iterations 1
DILUPBiCGStab:  Solving for Uy, Initial residual = 0.01234, Final residual = 0.000199437, No Iterations 1
DILUPBiCGStab:  Solving for Uz, Initial residual = 0.0537107, Final residual = 0.00317943, No Iterations 1
DILUPBiCGStab:  Solving for e, Initial residual = 0.00579737, Final residual = 0.000180241, No Iterations 1
DICPCG:  Solving for p_rgh, Initial residual = 0.0595909, Final residual = 0.000539353, No Iterations 188
time step continuity errors : sum local = 5.24666, global = 0.154074, cumulative = 6.39422
DILUPBiCGStab:  Solving for epsilon, Initial residual = 0, Final residual = 0, No Iterations 0
DILUPBiCGStab:  Solving for k, Initial residual = 0.0104887, Final residual = 0.000766955, No Iterations 1
ExecutionTime = 4.01 s  ClockTime = 4 s

Time = 73

DILUPBiCGStab:  Solving for Ux, Initial residual = 0.00756854, Final residual = 0.000445634, No Iterations 1
DILUPBiCGStab:  Solving for Uy, Initial residual = 0.0116098, Final residual = 0.000174834, No Iterations 1
DILUPBiCGStab:  Solving for Uz, Initial residual = 0.0502311, Final residual = 0.00304571, No Iterations 1
DILUPBiCGStab:  Solving for e, Initial residual = 0.00575736, Final residual = 0.000169263, No Iterations 1
DICPCG:  Solving for p_rgh, Initial residual = 0.0547015, Final residual = 0.000538455, No Iterations 117
time step continuity errors : sum local = 5.24938, global = -1.03502, cumulative = 5.3592
DILUPBiCGStab:  Solving for epsilon, Initial residual = 0, Final residual = 0, No Iterations 0
DILUPBiCGStab:  Solving for k, Initial residual = 0.010249, Final residual = 0.000730108, No Iterations 1
ExecutionTime = 4.05 s  ClockTime = 4 s

Time = 74

DILUPBiCGStab:  Solving for Ux, Initial residual = 0.00718497, Final residual = 0.000398434, No Iterations 1
DILUPBiCGStab:  Solving for Uy, Initial residual = 0.0109024, Final residual = 0.000154048, No Iterations 1
DILUPBiCGStab:  Solving for Uz, Initial residual = 0.0469668, Final residual = 0.00309286, No Iterations 1
DILUPBiCGStab:  Solving for e, Initial residual = 0.005736, Final residual = 0.000159896, No Iterations 1
DICPCG:  Solving for p_rgh, Initial residual = 0.0509757, Final residual = 0.000509188, No Iterations 38
time step continuity errors : sum local = 4.94433, global = -0.723481, cumulative = 4.63572
DILUPBiCGStab:  Solving for epsilon, Initial residual = 0, Final residual = 0, No Iterations 0
DILUPBiCGStab:  Solving for k, Initial residual = 0.00997147, Final residual = 0.000676345, No Iterations 1
ExecutionTime = 4.08 s  ClockTime = 4 s

Time = 75

DILUPBiCGStab:  Solving for Ux, Initial residual = 0.00684839, Final residual = 0.000358818, No Iterations 1
DILUPBiCGStab:  Solving for Uy, Initial residual = 0.0100563, Final residual = 0.000137499, No Iterations 1
DILUPBiCGStab:  Solving for Uz, Initial residual = 0.0450227, Final residual = 0.00304091, No Iterations 1
DILUPBiCGStab:  Solving for e, Initial residual = 0.0057223, Final residual = 0.000149713, No Iterations 1
DICPCG:  Solving for p_rgh, Initial residual = 0.0481083, Final residual = 0.000440973, No Iterations 119
time step continuity errors : sum local = 4.26231, global = -0.708346, cumulative = 3.92737
DILUPBiCGStab:  Solving for epsilon, Initial residual = 0, Final residual = 0, No Iterations 0
DILUPBiCGStab:  Solving for k, Initial residual = 0.00967624, Final residual = 0.000625745, No Iterations 1
ExecutionTime = 4.13 s  ClockTime = 4 s

Time = 76

DILUPBiCGStab:  Solving for Ux, Initial residual = 0.00651527, Final residual = 0.000329003, No Iterations 1
DILUPBiCGStab:  Solving for Uy, Initial residual = 0.0093089, Final residual = 0.000124953, No Iterations 1
DILUPBiCGStab:  Solving for Uz, Initial residual = 0.0433508, Final residual = 0.00294425, No Iterations 1
DILUPBiCGStab:  Solving for e, Initial residual = 0.00570272, Final residual = 0.000141129, No Iterations 1
DICPCG:  Solving for p_rgh, Initial residual = 0.0463451, Final residual = 0.000418683, No Iterations 120
time step continuity errors : sum local = 4.03926, global = -1.04137, cumulative = 2.886
DILUPBiCGStab:  Solving for epsilon, Initial residual = 0, Final residual = 0, No Iterations 0
DILUPBiCGStab:  Solving for k, Initial residual = 0.00939145, Final residual = 0.000577879, No Iterations 1
ExecutionTime = 4.18 s  ClockTime = 4 s

Time = 77

DILUPBiCGStab:  Solving for Ux, Initial residual = 0.00625796, Final residual = 0.000306858, No Iterations 1
DILUPBiCGStab:  Solving for Uy, Initial residual = 0.00876434, Final residual = 0.000114566, No Iterations 1
DILUPBiCGStab:  Solving for Uz, Initial residual = 0.0424649, Final residual = 0.00283445, No Iterations 1
DILUPBiCGStab:  Solving for e, Initial residual = 0.0056791, Final residual = 0.000133521, No Iterations 1
DICPCG:  Solving for p_rgh, Initial residual = 0.0456119, Final residual = 0.000363333, No Iterations 209
time step continuity errors : sum local = 3.50663, global = 0.00246668, cumulative = 2.88847
DILUPBiCGStab:  Solving for epsilon, Initial residual = 0, Final residual = 0, No Iterations 0
DILUPBiCGStab:  Solving for k, Initial residual = 0.00911901, Final residual = 0.000535443, No Iterations 1
ExecutionTime = 4.24 s  ClockTime = 4 s

Time = 78

DILUPBiCGStab:  Solving for Ux, Initial residual = 0.00595227, Final residual = 0.000286942, No Iterations 1
DILUPBiCGStab:  Solving for Uy, Initial residual = 0.00819025, Final residual = 0.000102434, No Iterations 1
DILUPBiCGStab:  Solving for Uz, Initial residual = 0.0419228, Final residual = 0.00285206, No Iterations 1
DILUPBiCGStab:  Solving for e, Initial residual = 0.00563315, Final residual = 0.000127766, No Iterations 1
DICPCG:  Solving for p_rgh, Initial residual = 0.0422395, Final residual = 0.000392547, No Iterations 43
time step continuity errors : sum local = 3.80548, global = -0.517985, cumulative = 2.37048
DILUPBiCGStab:  Solving for epsilon, Initial residual = 0, Final residual = 0, No Iterations 0
DILUPBiCGStab:  Solving for k, Initial residual = 0.00894873, Final residual = 0.000510552, No Iterations 1
ExecutionTime = 4.27 s  ClockTime = 4 s

Time = 79

DILUPBiCGStab:  Solving for Ux, Initial residual = 0.00578123, Final residual = 0.000274438, No Iterations 1
DILUPBiCGStab:  Solving for Uy, Initial residual = 0.00779867, Final residual = 9.33636e-05, No Iterations 1
DILUPBiCGStab:  Solving for Uz, Initial residual = 0.0401746, Final residual = 0.00264479, No Iterations 1
DILUPBiCGStab:  Solving for e, Initial residual = 0.00558548, Final residual = 0.000123395, No Iterations 1
DICPCG:  Solving for p_rgh, Initial residual = 0.0386576, Final residual = 0.000376924, No Iterations 48
time step continuity errors : sum local = 3.65577, global = -0.340231, cumulative = 2.03025
DILUPBiCGStab:  Solving for epsilon, Initial residual = 0, Final residual = 0, No Iterations 0
DILUPBiCGStab:  Solving for k, Initial residual = 0.00876711, Final residual = 0.000493127, No Iterations 1
ExecutionTime = 4.3 s  ClockTime = 4 s

Time = 80

DILUPBiCGStab:  Solving for Ux, Initial residual = 0.00562875, Final residual = 0.000261984, No Iterations 1
DILUPBiCGStab:  Solving for Uy, Initial residual = 0.00743491, Final residual = 0.000698011, No Iterations 1
DILUPBiCGStab:  Solving for Uz, Initial residual = 0.0385814, Final residual = 0.00247028, No Iterations 1
DILUPBiCGStab:  Solving for e, Initial residual = 0.00552966, Final residual = 0.000120168, No Iterations 1
DICPCG:  Solving for p_rgh, Initial residual = 0.0359863, Final residual = 0.000323331, No Iterations 116
time step continuity errors : sum local = 3.13241, global = -0.390172, cumulative = 1.64008
DILUPBiCGStab:  Solving for epsilon, Initial residual = 0, Final residual = 0, No Iterations 0
DILUPBiCGStab:  Solving for k, Initial residual = 0.00860304, Final residual = 0.000478267, No Iterations 1
ExecutionTime = 4.35 s  ClockTime = 4 s

Time = 81

DILUPBiCGStab:  Solving for Ux, Initial residual = 0.00548798, Final residual = 0.000253217, No Iterations 1
DILUPBiCGStab:  Solving for Uy, Initial residual = 0.00721541, Final residual = 0.000647924, No Iterations 1
DILUPBiCGStab:  Solving for Uz, Initial residual = 0.0380813, Final residual = 0.00232487, No Iterations 1
DILUPBiCGStab:  Solving for e, Initial residual = 0.00546921, Final residual = 0.000117426, No Iterations 1
DICPCG:  Solving for p_rgh, Initial residual = 0.0348372, Final residual = 0.000345193, No Iterations 119
time step continuity errors : sum local = 3.34696, global = -0.669312, cumulative = 0.970766
DILUPBiCGStab:  Solving for epsilon, Initial residual = 0, Final residual = 0, No Iterations 0
DILUPBiCGStab:  Solving for k, Initial residual = 0.00849267, Final residual = 0.000464071, No Iterations 1
ExecutionTime = 4.39 s  ClockTime = 4 s

Time = 82

DILUPBiCGStab:  Solving for Ux, Initial residual = 0.00536606, Final residual = 0.000242601, No Iterations 1
DILUPBiCGStab:  Solving for Uy, Initial residual = 0.00720335, Final residual = 0.00059313, No Iterations 1
DILUPBiCGStab:  Solving for Uz, Initial residual = 0.0375127, Final residual = 0.00219799, No Iterations 1
DILUPBiCGStab:  Solving for e, Initial residual = 0.00541591, Final residual = 0.000114427, No Iterations 1
DICPCG:  Solving for p_rgh, Initial residual = 0.0346446, Final residual = 0.000317952, No Iterations 43
time step continuity errors : sum local = 3.0884, global = -1.27971, cumulative = -0.308941
DILUPBiCGStab:  Solving for epsilon, Initial residual = 0, Final residual = 0, No Iterations 0
DILUPBiCGStab:  Solving for k, Initial residual = 0.00838848, Final residual = 0.000449078, No Iterations 1
ExecutionTime = 4.42 s  ClockTime = 4 s

Time = 83

DILUPBiCGStab:  Solving for Ux, Initial residual = 0.00529322, Final residual = 0.000233684, No Iterations 1
DILUPBiCGStab:  Solving for Uy, Initial residual = 0.00723399, Final residual = 0.000527466, No Iterations 1
DILUPBiCGStab:  Solving for Uz, Initial residual = 0.0370949, Final residual = 0.00209054, No Iterations 1
DILUPBiCGStab:  Solving for e, Initial residual = 0.00535998, Final residual = 0.000111332, No Iterations 1
DICPCG:  Solving for p_rgh, Initial residual = 0.0350465, Final residual = 0.000289658, No Iterations 208
time step continuity errors : sum local = 2.81969, global = -0.000968663, cumulative = -0.30991
DILUPBiCGStab:  Solving for epsilon, Initial residual = 0, Final residual = 0, No Iterations 0
DILUPBiCGStab:  Solving for k, Initial residual = 0.00821362, Final residual = 0.000433846, No Iterations 1
ExecutionTime = 4.48 s  ClockTime = 4 s

Time = 84

DILUPBiCGStab:  Solving for Ux, Initial residual = 0.0051797, Final residual = 0.000225495, No Iterations 1
DILUPBiCGStab:  Solving for Uy, Initial residual = 0.00735511, Final residual = 0.000460371, No Iterations 1
DILUPBiCGStab:  Solving for Uz, Initial residual = 0.037702, Final residual = 0.00197383, No Iterations 1
DILUPBiCGStab:  Solving for e, Initial residual = 0.00527732, Final residual = 0.000108079, No Iterations 1
DICPCG:  Solving for p_rgh, Initial residual = 0.0348238, Final residual = 0.000337994, No Iterations 61
time step continuity errors : sum local = 3.30965, global = -0.466289, cumulative = -0.776198
DILUPBiCGStab:  Solving for epsilon, Initial residual = 0, Final residual = 0, No Iterations 0
DILUPBiCGStab:  Solving for k, Initial residual = 0.00809599, Final residual = 0.000431354, No Iterations 1
ExecutionTime = 4.51 s  ClockTime = 4 s

Time = 85

DILUPBiCGStab:  Solving for Ux, Initial residual = 0.00517774, Final residual = 0.000239904, No Iterations 1
DILUPBiCGStab:  Solving for Uy, Initial residual = 0.00753707, Final residual = 0.000411748, No Iterations 1
DILUPBiCGStab:  Solving for Uz, Initial residual = 0.0361286, Final residual = 0.0019176, No Iterations 1
DILUPBiCGStab:  Solving for e, Initial residual = 0.00521561, Final residual = 0.00010688, No Iterations 1
DICPCG:  Solving for p_rgh, Initial residual = 0.0345294, Final residual = 0.00033777, No Iterations 60
time step continuity errors : sum local = 3.31809, global = 0.402276, cumulative = -0.373923
DILUPBiCGStab:  Solving for epsilon, Initial residual = 0, Final residual = 0, No Iterations 0
DILUPBiCGStab:  Solving for k, Initial residual = 0.00792086, Final residual = 0.000416721, No Iterations 1
ExecutionTime = 4.55 s  ClockTime = 4 s

Time = 86

DILUPBiCGStab:  Solving for Ux, Initial residual = 0.00519784, Final residual = 0.000239981, No Iterations 1
DILUPBiCGStab:  Solving for Uy, Initial residual = 0.00786159, Final residual = 0.000377364, No Iterations 1
DILUPBiCGStab:  Solving for Uz, Initial residual = 0.035712, Final residual = 0.00196193, No Iterations 1
DILUPBiCGStab:  Solving for e, Initial residual = 0.00514283, Final residual = 0.000104383, No Iterations 1
DICPCG:  Solving for p_rgh, Initial residual = 0.034563, Final residual = 0.000345393, No Iterations 66
time step continuity errors : sum local = 3.39938, global = 1.25379, cumulative = 0.879869
DILUPBiCGStab:  Solving for epsilon, Initial residual = 0, Final residual = 0, No Iterations 0
DILUPBiCGStab:  Solving for k, Initial residual = 0.00775805, Final residual = 0.000400456, No Iterations 1
ExecutionTime = 4.58 s  ClockTime = 4 s

Time = 87

DILUPBiCGStab:  Solving for Ux, Initial residual = 0.00529777, Final residual = 0.000240031, No Iterations 1
DILUPBiCGStab:  Solving for Uy, Initial residual = 0.00826899, Final residual = 0.000352871, No Iterations 1
DILUPBiCGStab:  Solving for Uz, Initial residual = 0.0352669, Final residual = 0.00200894, No Iterations 1
DILUPBiCGStab:  Solving for e, Initial residual = 0.00509314, Final residual = 0.000101287, No Iterations 1
DICPCG:  Solving for p_rgh, Initial residual = 0.0355672, Final residual = 0.00033253, No Iterations 207
time step continuity errors : sum local = 3.27733, global = 0.000505327, cumulative = 0.880375
DILUPBiCGStab:  Solving for epsilon, Initial residual = 0, Final residual = 0, No Iterations 0
DILUPBiCGStab:  Solving for k, Initial residual = 0.00767106, Final residual = 0.000403658, No Iterations 1
ExecutionTime = 4.64 s  ClockTime = 5 s

Time = 88

DILUPBiCGStab:  Solving for Ux, Initial residual = 0.00549626, Final residual = 0.000278608, No Iterations 1
DILUPBiCGStab:  Solving for Uy, Initial residual = 0.00868491, Final residual = 0.000349291, No Iterations 1
DILUPBiCGStab:  Solving for Uz, Initial residual = 0.0350699, Final residual = 0.00204193, No Iterations 1
DILUPBiCGStab:  Solving for e, Initial residual = 0.00508033, Final residual = 0.000100238, No Iterations 1
DICPCG:  Solving for p_rgh, Initial residual = 0.0369234, Final residual = 0.000355022, No Iterations 141
time step continuity errors : sum local = 3.4848, global = 0.802502, cumulative = 1.68288
DILUPBiCGStab:  Solving for epsilon, Initial residual = 0, Final residual = 0, No Iterations 0
DILUPBiCGStab:  Solving for k, Initial residual = 0.00750974, Final residual = 0.000389623, No Iterations 1
ExecutionTime = 4.72 s  ClockTime = 5 s

Time = 89

DILUPBiCGStab:  Solving for Ux, Initial residual = 0.00565908, Final residual = 0.000283302, No Iterations 1
DILUPBiCGStab:  Solving for Uy, Initial residual = 0.00915778, Final residual = 0.000351611, No Iterations 1
[...]
DILUPBiCGStab:  Solving for e, Initial residual = 0.00148586, Final residual = 2.86325e-05, No Iterations 1
DICPCG:  Solving for p_rgh, Initial residual = 0.100219, Final residual = 0.000982967, No Iterations 87
time step continuity errors : sum local = 27.62, global = -13.3412, cumulative = -318.23
DILUPBiCGStab:  Solving for epsilon, Initial residual = 0, Final residual = 0, No Iterations 0
DILUPBiCGStab:  Solving for k, Initial residual = 0.0112268, Final residual = 0.00063129, No Iterations 1
ExecutionTime = 47.15 s  ClockTime = 48 s

Time = 979

DILUPBiCGStab:  Solving for Ux, Initial residual = 0.0168131, Final residual = 0.00114551, No Iterations 1
DILUPBiCGStab:  Solving for Uy, Initial residual = 0.0436419, Final residual = 0.00307662, No Iterations 1
DILUPBiCGStab:  Solving for Uz, Initial residual = 0.0506406, Final residual = 0.00289521, No Iterations 1
DILUPBiCGStab:  Solving for e, Initial residual = 0.00144865, Final residual = 2.94758e-05, No Iterations 1
DICPCG:  Solving for p_rgh, Initial residual = 0.103023, Final residual = 0.000733085, No Iterations 211
time step continuity errors : sum local = 20.1587, global = 0.00868384, cumulative = -318.221
DILUPBiCGStab:  Solving for epsilon, Initial residual = 0, Final residual = 0, No Iterations 0
DILUPBiCGStab:  Solving for k, Initial residual = 0.0111896, Final residual = 0.000522011, No Iterations 1
ExecutionTime = 47.21 s  ClockTime = 48 s

Time = 980

DILUPBiCGStab:  Solving for Ux, Initial residual = 0.0169153, Final residual = 0.00125179, No Iterations 1
DILUPBiCGStab:  Solving for Uy, Initial residual = 0.0413509, Final residual = 0.00285153, No Iterations 1
DILUPBiCGStab:  Solving for Uz, Initial residual = 0.0544211, Final residual = 0.00337132, No Iterations 1
DILUPBiCGStab:  Solving for e, Initial residual = 0.0013949, Final residual = 2.76853e-05, No Iterations 1
DICPCG:  Solving for p_rgh, Initial residual = 0.0994859, Final residual = 0.000978622, No Iterations 82
time step continuity errors : sum local = 27.1899, global = -1.88147, cumulative = -320.103
DILUPBiCGStab:  Solving for epsilon, Initial residual = 0, Final residual = 0, No Iterations 0
DILUPBiCGStab:  Solving for k, Initial residual = 0.0117323, Final residual = 0.000490846, No Iterations 1
ExecutionTime = 47.25 s  ClockTime = 48 s

Time = 981

DILUPBiCGStab:  Solving for Ux, Initial residual = 0.0166303, Final residual = 0.00128417, No Iterations 1
DILUPBiCGStab:  Solving for Uy, Initial residual = 0.0392015, Final residual = 0.00260872, No Iterations 1
DILUPBiCGStab:  Solving for Uz, Initial residual = 0.0345778, Final residual = 0.00243766, No Iterations 1
DILUPBiCGStab:  Solving for e, Initial residual = 0.00137359, Final residual = 2.82454e-05, No Iterations 1
DICPCG:  Solving for p_rgh, Initial residual = 0.10142, Final residual = 0.00100871, No Iterations 38
time step continuity errors : sum local = 27.0283, global = 11.8019, cumulative = -308.301
DILUPBiCGStab:  Solving for epsilon, Initial residual = 0, Final residual = 0, No Iterations 0
DILUPBiCGStab:  Solving for k, Initial residual = 0.0123849, Final residual = 0.000491835, No Iterations 1
ExecutionTime = 47.28 s  ClockTime = 48 s

Time = 982

DILUPBiCGStab:  Solving for Ux, Initial residual = 0.0162106, Final residual = 0.00126283, No Iterations 1
DILUPBiCGStab:  Solving for Uy, Initial residual = 0.0369268, Final residual = 0.00240368, No Iterations 1
DILUPBiCGStab:  Solving for Uz, Initial residual = 0.0488172, Final residual = 0.00303899, No Iterations 1
DILUPBiCGStab:  Solving for e, Initial residual = 0.00132745, Final residual = 2.69363e-05, No Iterations 1
DICPCG:  Solving for p_rgh, Initial residual = 0.0956012, Final residual = 0.000947881, No Iterations 207
time step continuity errors : sum local = 24.7248, global = -0.0156973, cumulative = -308.317
DILUPBiCGStab:  Solving for epsilon, Initial residual = 0, Final residual = 0, No Iterations 0
DILUPBiCGStab:  Solving for k, Initial residual = 0.0128425, Final residual = 0.000479042, No Iterations 1
ExecutionTime = 47.34 s  ClockTime = 48 s

Time = 983

DILUPBiCGStab:  Solving for Ux, Initial residual = 0.0155979, Final residual = 0.00122821, No Iterations 1
DILUPBiCGStab:  Solving for Uy, Initial residual = 0.0334078, Final residual = 0.00208146, No Iterations 1
DILUPBiCGStab:  Solving for Uz, Initial residual = 0.0390336, Final residual = 0.00293363, No Iterations 1
DILUPBiCGStab:  Solving for e, Initial residual = 0.00133244, Final residual = 2.9031e-05, No Iterations 1
DICPCG:  Solving for p_rgh, Initial residual = 0.0955664, Final residual = 0.000908328, No Iterations 47
time step continuity errors : sum local = 22.4682, global = 9.17882, cumulative = -299.138
DILUPBiCGStab:  Solving for epsilon, Initial residual = 0, Final residual = 0, No Iterations 0
DILUPBiCGStab:  Solving for k, Initial residual = 0.0128855, Final residual = 0.000403129, No Iterations 1
ExecutionTime = 47.37 s  ClockTime = 48 s

Time = 984

DILUPBiCGStab:  Solving for Ux, Initial residual = 0.0151057, Final residual = 0.00108707, No Iterations 1
DILUPBiCGStab:  Solving for Uy, Initial residual = 0.0297766, Final residual = 0.00155804, No Iterations 1
DILUPBiCGStab:  Solving for Uz, Initial residual = 0.0352046, Final residual = 0.00267063, No Iterations 1
DILUPBiCGStab:  Solving for e, Initial residual = 0.00128947, Final residual = 2.67993e-05, No Iterations 1
DICPCG:  Solving for p_rgh, Initial residual = 0.102478, Final residual = 0.000939496, No Iterations 94
time step continuity errors : sum local = 23.7771, global = 5.08392, cumulative = -294.054
DILUPBiCGStab:  Solving for epsilon, Initial residual = 0, Final residual = 0, No Iterations 0
DILUPBiCGStab:  Solving for k, Initial residual = 0.0128967, Final residual = 0.00033467, No Iterations 1
ExecutionTime = 47.41 s  ClockTime = 48 s

Time = 985

DILUPBiCGStab:  Solving for Ux, Initial residual = 0.0152319, Final residual = 0.000849155, No Iterations 1
DILUPBiCGStab:  Solving for Uy, Initial residual = 0.0267108, Final residual = 0.000932405, No Iterations 1
DILUPBiCGStab:  Solving for Uz, Initial residual = 0.0335773, Final residual = 0.00219953, No Iterations 1
DILUPBiCGStab:  Solving for e, Initial residual = 0.00130695, Final residual = 2.61234e-05, No Iterations 1
DICPCG:  Solving for p_rgh, Initial residual = 0.0982873, Final residual = 0.000906607, No Iterations 178
time step continuity errors : sum local = 23.9208, global = 6.12173, cumulative = -287.932
DILUPBiCGStab:  Solving for epsilon, Initial residual = 0, Final residual = 0, No Iterations 0
DILUPBiCGStab:  Solving for k, Initial residual = 0.0127602, Final residual = 0.000280087, No Iterations 1
ExecutionTime = 47.47 s  ClockTime = 48 s

Time = 986

DILUPBiCGStab:  Solving for Ux, Initial residual = 0.0157401, Final residual = 0.000784727, No Iterations 1
DILUPBiCGStab:  Solving for Uy, Initial residual = 0.0260773, Final residual = 0.000582454, No Iterations 1
DILUPBiCGStab:  Solving for Uz, Initial residual = 0.0307174, Final residual = 0.00191532, No Iterations 1
DILUPBiCGStab:  Solving for e, Initial residual = 0.00131291, Final residual = 2.50241e-05, No Iterations 1
DICPCG:  Solving for p_rgh, Initial residual = 0.0997636, Final residual = 0.00098416, No Iterations 208
time step continuity errors : sum local = 27.5402, global = 0.032158, cumulative = -287.9
DILUPBiCGStab:  Solving for epsilon, Initial residual = 0, Final residual = 0, No Iterations 0
DILUPBiCGStab:  Solving for k, Initial residual = 0.0127137, Final residual = 0.000280338, No Iterations 1
ExecutionTime = 47.53 s  ClockTime = 48 s

Time = 987

DILUPBiCGStab:  Solving for Ux, Initial residual = 0.0166556, Final residual = 0.000650779, No Iterations 1
DILUPBiCGStab:  Solving for Uy, Initial residual = 0.0296589, Final residual = 0.000700193, No Iterations 1
DILUPBiCGStab:  Solving for Uz, Initial residual = 0.0294536, Final residual = 0.00174705, No Iterations 1
DILUPBiCGStab:  Solving for e, Initial residual = 0.00134579, Final residual = 2.54658e-05, No Iterations 1
DICPCG:  Solving for p_rgh, Initial residual = 0.0908726, Final residual = 0.000597482, No Iterations 212
time step continuity errors : sum local = 17.1623, global = 0.00234208, cumulative = -287.898
DILUPBiCGStab:  Solving for epsilon, Initial residual = 0, Final residual = 0, No Iterations 0
DILUPBiCGStab:  Solving for k, Initial residual = 0.0127487, Final residual = 0.000256688, No Iterations 1
ExecutionTime = 47.59 s  ClockTime = 48 s

Time = 988

DILUPBiCGStab:  Solving for Ux, Initial residual = 0.0161767, Final residual = 0.000507836, No Iterations 1
DILUPBiCGStab:  Solving for Uy, Initial residual = 0.0341064, Final residual = 0.00103383, No Iterations 1
DILUPBiCGStab:  Solving for Uz, Initial residual = 0.0281644, Final residual = 0.00183869, No Iterations 1
DILUPBiCGStab:  Solving for e, Initial residual = 0.00136126, Final residual = 2.41262e-05, No Iterations 1
DICPCG:  Solving for p_rgh, Initial residual = 0.0857376, Final residual = 0.00084963, No Iterations 49
time step continuity errors : sum local = 22.5794, global = 1.07923, cumulative = -286.818
DILUPBiCGStab:  Solving for epsilon, Initial residual = 0, Final residual = 0, No Iterations 0
DILUPBiCGStab:  Solving for k, Initial residual = 0.0127095, Final residual = 0.000237291, No Iterations 1
ExecutionTime = 47.62 s  ClockTime = 48 s

Time = 989

DILUPBiCGStab:  Solving for Ux, Initial residual = 0.0146157, Final residual = 0.000418352, No Iterations 1
DILUPBiCGStab:  Solving for Uy, Initial residual = 0.0342259, Final residual = 0.00131727, No Iterations 1
DILUPBiCGStab:  Solving for Uz, Initial residual = 0.0249634, Final residual = 0.00137782, No Iterations 1
DILUPBiCGStab:  Solving for e, Initial residual = 0.00133868, Final residual = 2.22461e-05, No Iterations 1
DICPCG:  Solving for p_rgh, Initial residual = 0.0984051, Final residual = 0.000813885, No Iterations 211
time step continuity errors : sum local = 21.0087, global = 0.0120678, cumulative = -286.806
DILUPBiCGStab:  Solving for epsilon, Initial residual = 0, Final residual = 0, No Iterations 0
DILUPBiCGStab:  Solving for k, Initial residual = 0.0123472, Final residual = 0.000230879, No Iterations 1
ExecutionTime = 47.68 s  ClockTime = 48 s

Time = 990

DILUPBiCGStab:  Solving for Ux, Initial residual = 0.0136149, Final residual = 0.000391221, No Iterations 1
DILUPBiCGStab:  Solving for Uy, Initial residual = 0.0343309, Final residual = 0.0012386, No Iterations 1
DILUPBiCGStab:  Solving for Uz, Initial residual = 0.0247453, Final residual = 0.00130599, No Iterations 1
DILUPBiCGStab:  Solving for e, Initial residual = 0.00128016, Final residual = 2.11112e-05, No Iterations 1
DICPCG:  Solving for p_rgh, Initial residual = 0.0873181, Final residual = 0.00075655, No Iterations 211
time step continuity errors : sum local = 20.6381, global = -0.000195749, cumulative = -286.807
DILUPBiCGStab:  Solving for epsilon, Initial residual = 0, Final residual = 0, No Iterations 0
DILUPBiCGStab:  Solving for k, Initial residual = 0.0117351, Final residual = 0.000224321, No Iterations 1
ExecutionTime = 47.75 s  ClockTime = 48 s

Time = 991

DILUPBiCGStab:  Solving for Ux, Initial residual = 0.0134646, Final residual = 0.000413296, No Iterations 1
DILUPBiCGStab:  Solving for Uy, Initial residual = 0.037512, Final residual = 0.00131217, No Iterations 1
DILUPBiCGStab:  Solving for Uz, Initial residual = 0.0250036, Final residual = 0.00127857, No Iterations 1
DILUPBiCGStab:  Solving for e, Initial residual = 0.00124588, Final residual = 2.05175e-05, No Iterations 1
DICPCG:  Solving for p_rgh, Initial residual = 0.0753207, Final residual = 0.000745126, No Iterations 33
time step continuity errors : sum local = 21.0022, global = 2.15181, cumulative = -284.655
DILUPBiCGStab:  Solving for epsilon, Initial residual = 0, Final residual = 0, No Iterations 0
DILUPBiCGStab:  Solving for k, Initial residual = 0.0110683, Final residual = 0.000233138, No Iterations 1
ExecutionTime = 47.78 s  ClockTime = 48 s

Time = 992

DILUPBiCGStab:  Solving for Ux, Initial residual = 0.0126876, Final residual = 0.00052923, No Iterations 1
DILUPBiCGStab:  Solving for Uy, Initial residual = 0.0390425, Final residual = 0.00150521, No Iterations 1
DILUPBiCGStab:  Solving for Uz, Initial residual = 0.024356, Final residual = 0.0012361, No Iterations 1
DILUPBiCGStab:  Solving for e, Initial residual = 0.00120481, Final residual = 2.01926e-05, No Iterations 1
DICPCG:  Solving for p_rgh, Initial residual = 0.0767371, Final residual = 0.000757558, No Iterations 85
time step continuity errors : sum local = 21.3606, global = 11.5287, cumulative = -273.126
DILUPBiCGStab:  Solving for epsilon, Initial residual = 0, Final residual = 0, No Iterations 0
DILUPBiCGStab:  Solving for k, Initial residual = 0.0106882, Final residual = 0.000260593, No Iterations 1
ExecutionTime = 47.81 s  ClockTime = 48 s

Time = 993

DILUPBiCGStab:  Solving for Ux, Initial residual = 0.0127985, Final residual = 0.000640866, No Iterations 1
DILUPBiCGStab:  Solving for Uy, Initial residual = 0.0396823, Final residual = 0.00178244, No Iterations 1
DILUPBiCGStab:  Solving for Uz, Initial residual = 0.0428713, Final residual = 0.00271913, No Iterations 1
DILUPBiCGStab:  Solving for e, Initial residual = 0.00118144, Final residual = 1.99005e-05, No Iterations 1
DICPCG:  Solving for p_rgh, Initial residual = 0.0854544, Final residual = 0.000601714, No Iterations 208
time step continuity errors : sum local = 17.0775, global = -0.00465988, cumulative = -273.131
DILUPBiCGStab:  Solving for epsilon, Initial residual = 0, Final residual = 0, No Iterations 0
DILUPBiCGStab:  Solving for k, Initial residual = 0.0109421, Final residual = 0.000327943, No Iterations 1
ExecutionTime = 47.87 s  ClockTime = 48 s

Time = 994

DILUPBiCGStab:  Solving for Ux, Initial residual = 0.0128296, Final residual = 0.000640665, No Iterations 1
DILUPBiCGStab:  Solving for Uy, Initial residual = 0.0380735, Final residual = 0.00190439, No Iterations 1
DILUPBiCGStab:  Solving for Uz, Initial residual = 0.0316905, Final residual = 0.00156604, No Iterations 1
DILUPBiCGStab:  Solving for e, Initial residual = 0.00117253, Final residual = 2.21852e-05, No Iterations 1
DICPCG:  Solving for p_rgh, Initial residual = 0.0932537, Final residual = 0.000893086, No Iterations 33
time step continuity errors : sum local = 24.7221, global = 8.98778, cumulative = -264.143
DILUPBiCGStab:  Solving for epsilon, Initial residual = 0, Final residual = 0, No Iterations 0
DILUPBiCGStab:  Solving for k, Initial residual = 0.0112514, Final residual = 0.000357354, No Iterations 1
ExecutionTime = 47.9 s  ClockTime = 48 s

Time = 995

DILUPBiCGStab:  Solving for Ux, Initial residual = 0.0137879, Final residual = 0.000793208, No Iterations 1
DILUPBiCGStab:  Solving for Uy, Initial residual = 0.0361171, Final residual = 0.00206017, No Iterations 1
DILUPBiCGStab:  Solving for Uz, Initial residual = 0.0326553, Final residual = 0.00180239, No Iterations 1
DILUPBiCGStab:  Solving for e, Initial residual = 0.00117585, Final residual = 2.31971e-05, No Iterations 1
DICPCG:  Solving for p_rgh, Initial residual = 0.0885859, Final residual = 0.000885776, No Iterations 36
time step continuity errors : sum local = 25.1401, global = 2.12101, cumulative = -262.022
DILUPBiCGStab:  Solving for epsilon, Initial residual = 0, Final residual = 0, No Iterations 0
DILUPBiCGStab:  Solving for k, Initial residual = 0.0119342, Final residual = 0.000395724, No Iterations 1
ExecutionTime = 47.93 s  ClockTime = 48 s

Time = 996

DILUPBiCGStab:  Solving for Ux, Initial residual = 0.0148733, Final residual = 0.000908988, No Iterations 1
DILUPBiCGStab:  Solving for Uy, Initial residual = 0.0366064, Final residual = 0.00202156, No Iterations 1
DILUPBiCGStab:  Solving for Uz, Initial residual = 0.0323177, Final residual = 0.00161843, No Iterations 1
DILUPBiCGStab:  Solving for e, Initial residual = 0.00121726, Final residual = 2.48169e-05, No Iterations 1
DICPCG:  Solving for p_rgh, Initial residual = 0.0844333, Final residual = 0.000824834, No Iterations 30
time step continuity errors : sum local = 24.0166, global = 4.07712, cumulative = -257.945
DILUPBiCGStab:  Solving for epsilon, Initial residual = 0, Final residual = 0, No Iterations 0
DILUPBiCGStab:  Solving for k, Initial residual = 0.0125048, Final residual = 0.000432333, No Iterations 1
ExecutionTime = 47.96 s  ClockTime = 49 s

Time = 997

DILUPBiCGStab:  Solving for Ux, Initial residual = 0.0157826, Final residual = 0.00101344, No Iterations 1
DILUPBiCGStab:  Solving for Uy, Initial residual = 0.038562, Final residual = 0.00217937, No Iterations 1
DILUPBiCGStab:  Solving for Uz, Initial residual = 0.0332081, Final residual = 0.00161266, No Iterations 1
DILUPBiCGStab:  Solving for e, Initial residual = 0.00123749, Final residual = 2.59262e-05, No Iterations 1
DICPCG:  Solving for p_rgh, Initial residual = 0.0846013, Final residual = 0.000791032, No Iterations 84
time step continuity errors : sum local = 22.6027, global = 7.52044, cumulative = -250.424
DILUPBiCGStab:  Solving for epsilon, Initial residual = 0, Final residual = 0, No Iterations 0
DILUPBiCGStab:  Solving for k, Initial residual = 0.0128374, Final residual = 0.00045467, No Iterations 1
ExecutionTime = 48 s  ClockTime = 49 s

Time = 998

DILUPBiCGStab:  Solving for Ux, Initial residual = 0.0159765, Final residual = 0.00102159, No Iterations 1
DILUPBiCGStab:  Solving for Uy, Initial residual = 0.0384512, Final residual = 0.0022844, No Iterations 1
DILUPBiCGStab:  Solving for Uz, Initial residual = 0.0330371, Final residual = 0.00161191, No Iterations 1
DILUPBiCGStab:  Solving for e, Initial residual = 0.00123543, Final residual = 2.74289e-05, No Iterations 1
DICPCG:  Solving for p_rgh, Initial residual = 0.0891604, Final residual = 0.000872608, No Iterations 34
time step continuity errors : sum local = 24.4387, global = 9.18616, cumulative = -241.238
DILUPBiCGStab:  Solving for epsilon, Initial residual = 0, Final residual = 0, No Iterations 0
DILUPBiCGStab:  Solving for k, Initial residual = 0.0130277, Final residual = 0.000485872, No Iterations 1
ExecutionTime = 48.04 s  ClockTime = 49 s

Time = 999

DILUPBiCGStab:  Solving for Ux, Initial residual = 0.0162335, Final residual = 0.00101891, No Iterations 1
DILUPBiCGStab:  Solving for Uy, Initial residual = 0.0367191, Final residual = 0.00227587, No Iterations 1
DILUPBiCGStab:  Solving for Uz, Initial residual = 0.0353077, Final residual = 0.00156265, No Iterations 1
DILUPBiCGStab:  Solving for e, Initial residual = 0.00127016, Final residual = 2.98633e-05, No Iterations 1
DICPCG:  Solving for p_rgh, Initial residual = 0.094584, Final residual = 0.000945589, No Iterations 86
time step continuity errors : sum local = 25.8774, global = 7.91156, cumulative = -233.327
DILUPBiCGStab:  Solving for epsilon, Initial residual = 0, Final residual = 0, No Iterations 0
DILUPBiCGStab:  Solving for k, Initial residual = 0.0129186, Final residual = 0.000517681, No Iterations 1
ExecutionTime = 48.07 s  ClockTime = 49 s

Time = 1000

DILUPBiCGStab:  Solving for Ux, Initial residual = 0.0160783, Final residual = 0.00100404, No Iterations 1
DILUPBiCGStab:  Solving for Uy, Initial residual = 0.035332, Final residual = 0.00222873, No Iterations 1
DILUPBiCGStab:  Solving for Uz, Initial residual = 0.0383796, Final residual = 0.00179225, No Iterations 1
DILUPBiCGStab:  Solving for e, Initial residual = 0.00130095, Final residual = 3.27185e-05, No Iterations 1
DICPCG:  Solving for p_rgh, Initial residual = 0.0979782, Final residual = 0.00092296, No Iterations 84
time step continuity errors : sum local = 24.8046, global = 6.62083, cumulative = -226.706
DILUPBiCGStab:  Solving for epsilon, Initial residual = 0, Final residual = 0, No Iterations 0
DILUPBiCGStab:  Solving for k, Initial residual = 0.0126272, Final residual = 0.000525838, No Iterations 1
ExecutionTime = 48.22 s  ClockTime = 49 s

End

