/*---------------------------------------------------------------------------*\
  =========                 |
  \\      /  F ield         | OpenFOAM: The Open Source CFD Toolbox
   \\    /   O peration     | Website:  https://openfoam.org
    \\  /    A nd           | Version:  8
     \\/     M anipulation  |
\*---------------------------------------------------------------------------*/
Build  : 8-1c9b5879390b
Exec   : buoyantSimpleFoam
Date   : Jan 27 2025
Time   : 14:43:57
Host   : "658dd9edf29b"
PID    : 817
I/O    : uncollated
Case   : /home/openfoam/run/180bentPipe/Re5000/q-1500
nProcs : 1
sigFpe : Enabling floating point exception trapping (FOAM_SIGFPE).
fileModificationChecking : Monitoring run-time modified files using timeStampMaster (fileModificationSkew 10)
allowSystemOperations : Allowing user-supplied system call operations

// * * * * * * * * * * * * * * * * * * * * * * * * * * * * * * * * * * * * * //
Create time

Create mesh for time = 0


SIMPLE: Convergence criteria found
        p_rgh: tolerance 0.01
        U: tolerance 0.0001
        e: tolerance 0.01
        "(k|epsilon|omega)": tolerance 0.001

Reading thermophysical properties

Selecting thermodynamics package 
{
    type            heRhoThermo;
    mixture         pureMixture;
    transport       const;
    thermo          eConst;
    equationOfState Boussinesq;
    specie          specie;
    energy          sensibleInternalEnergy;
}

Reading field U

Reading/calculating face flux field phi

Creating turbulence model

Selecting turbulence model type RAS
Selecting RAS turbulence model kEpsilon
RAS
{
    RASModel        kEpsilon;
    turbulence      on;
    printCoeffs     on;
    Cmu             0.09;
    C1              1.44;
    C2              1.92;
    C3              0;
    sigmak          1;
    sigmaEps        1.3;
}

Creating thermophysical transport model

Selecting thermophysical transport type RAS
Selecting default RAS thermophysical transport model eddyDiffusivity

Reading g

Reading hRef
Calculating field g.h


Reading pRef
Reading field p_rgh

--> FOAM Warning : 
    From function const Foam::HashTable<Foam::List<int>, Foam::word>& Foam::polyBoundaryMesh::groupPatchIDs() const
    in file meshes/polyMesh/polyBoundaryMesh/polyBoundaryMesh.C at line 473
    Removing patchGroup 'wall' which clashes with patch 0 of the same name.
No MRF models present

Radiation model not active: radiationProperties not found
Selecting radiationModel none
No finite volume options present

Starting time loop

Time = 1

DILUPBiCGStab:  Solving for Ux, Initial residual = 1, Final residual = 0.0182297, No Iterations 1
DILUPBiCGStab:  Solving for Uy, Initial residual = 1, Final residual = 0.0145546, No Iterations 1
DILUPBiCGStab:  Solving for Uz, Initial residual = 1, Final residual = 0.0633914, No Iterations 1
DILUPBiCGStab:  Solving for e, Initial residual = 1, Final residual = 2.78965e-05, No Iterations 1
DICPCG:  Solving for p_rgh, Initial residual = 0.992904, Final residual = 0.00943999, No Iterations 166
time step continuity errors : sum local = 198.043, global = -0.778689, cumulative = -0.778689
DILUPBiCGStab:  Solving for epsilon, Initial residual = 0, Final residual = 0, No Iterations 0
DILUPBiCGStab:  Solving for k, Initial residual = 1, Final residual = 0.0122886, No Iterations 1
ExecutionTime = 0.24 s  ClockTime = 0 s

Time = 2

DILUPBiCGStab:  Solving for Ux, Initial residual = 0.638008, Final residual = 0.0072868, No Iterations 1
DILUPBiCGStab:  Solving for Uy, Initial residual = 0.649792, Final residual = 0.00894924, No Iterations 1
DILUPBiCGStab:  Solving for Uz, Initial residual = 0.606498, Final residual = 0.00214163, No Iterations 1
DILUPBiCGStab:  Solving for e, Initial residual = 0.20153, Final residual = 3.00216e-05, No Iterations 1
DICPCG:  Solving for p_rgh, Initial residual = 0.050239, Final residual = 0.000494099, No Iterations 189
time step continuity errors : sum local = 332.512, global = -3.01533, cumulative = -3.79402
DILUPBiCGStab:  Solving for epsilon, Initial residual = 0, Final residual = 0, No Iterations 0
DILUPBiCGStab:  Solving for k, Initial residual = 0.212273, Final residual = 8.53057e-05, No Iterations 1
ExecutionTime = 0.3 s  ClockTime = 0 s

Time = 3

DILUPBiCGStab:  Solving for Ux, Initial residual = 0.203861, Final residual = 0.00233252, No Iterations 1
DILUPBiCGStab:  Solving for Uy, Initial residual = 0.202838, Final residual = 0.00608329, No Iterations 1
DILUPBiCGStab:  Solving for Uz, Initial residual = 0.478066, Final residual = 0.00282812, No Iterations 1
DILUPBiCGStab:  Solving for e, Initial residual = 0.123264, Final residual = 0.000674037, No Iterations 1
DICPCG:  Solving for p_rgh, Initial residual = 0.143456, Final residual = 0.00112391, No Iterations 189
time step continuity errors : sum local = 303.47, global = -1.811, cumulative = -5.60502
DILUPBiCGStab:  Solving for epsilon, Initial residual = 0, Final residual = 0, No Iterations 0
DILUPBiCGStab:  Solving for k, Initial residual = 0.142318, Final residual = 0.00187451, No Iterations 1
ExecutionTime = 0.36 s  ClockTime = 0 s

Time = 4

DILUPBiCGStab:  Solving for Ux, Initial residual = 0.321391, Final residual = 0.00497014, No Iterations 1
DILUPBiCGStab:  Solving for Uy, Initial residual = 0.34292, Final residual = 0.00761907, No Iterations 1
DILUPBiCGStab:  Solving for Uz, Initial residual = 0.264525, Final residual = 0.00299, No Iterations 1
DILUPBiCGStab:  Solving for e, Initial residual = 0.0989779, Final residual = 0.000336376, No Iterations 1
DICPCG:  Solving for p_rgh, Initial residual = 0.0407023, Final residual = 0.000356851, No Iterations 166
time step continuity errors : sum local = 215.272, global = 5.06953, cumulative = -0.535486
DILUPBiCGStab:  Solving for epsilon, Initial residual = 0, Final residual = 0, No Iterations 0
DILUPBiCGStab:  Solving for k, Initial residual = 0.0877653, Final residual = 0.000998189, No Iterations 1
ExecutionTime = 0.41 s  ClockTime = 0 s

Time = 5

DILUPBiCGStab:  Solving for Ux, Initial residual = 0.29937, Final residual = 0.00890966, No Iterations 1
DILUPBiCGStab:  Solving for Uy, Initial residual = 0.37987, Final residual = 0.0118801, No Iterations 1
DILUPBiCGStab:  Solving for Uz, Initial residual = 0.32286, Final residual = 0.00206336, No Iterations 1
DILUPBiCGStab:  Solving for e, Initial residual = 0.0823288, Final residual = 0.000224263, No Iterations 1
DICPCG:  Solving for p_rgh, Initial residual = 0.148826, Final residual = 0.00114781, No Iterations 180
time step continuity errors : sum local = 230.709, global = 3.47008, cumulative = 2.93459
DILUPBiCGStab:  Solving for epsilon, Initial residual = 0, Final residual = 0, No Iterations 0
DILUPBiCGStab:  Solving for k, Initial residual = 0.070591, Final residual = 0.00116701, No Iterations 1
ExecutionTime = 0.46 s  ClockTime = 0 s

Time = 6

DILUPBiCGStab:  Solving for Ux, Initial residual = 0.1032, Final residual = 0.0048464, No Iterations 1
DILUPBiCGStab:  Solving for Uy, Initial residual = 0.219308, Final residual = 0.0157919, No Iterations 1
DILUPBiCGStab:  Solving for Uz, Initial residual = 0.211198, Final residual = 0.00379049, No Iterations 1
DILUPBiCGStab:  Solving for e, Initial residual = 0.0708596, Final residual = 0.000275805, No Iterations 1
DICPCG:  Solving for p_rgh, Initial residual = 0.665272, Final residual = 0.00546534, No Iterations 205
time step continuity errors : sum local = 240.449, global = -0.355326, cumulative = 2.57927
DILUPBiCGStab:  Solving for epsilon, Initial residual = 0, Final residual = 0, No Iterations 0
DILUPBiCGStab:  Solving for k, Initial residual = 0.058197, Final residual = 0.00133837, No Iterations 1
ExecutionTime = 0.52 s  ClockTime = 0 s

Time = 7

DILUPBiCGStab:  Solving for Ux, Initial residual = 0.185171, Final residual = 0.0156539, No Iterations 1
DILUPBiCGStab:  Solving for Uy, Initial residual = 0.29097, Final residual = 0.0234445, No Iterations 1
DILUPBiCGStab:  Solving for Uz, Initial residual = 0.194359, Final residual = 0.00763912, No Iterations 1
DILUPBiCGStab:  Solving for e, Initial residual = 0.0614316, Final residual = 0.000449659, No Iterations 1
DICPCG:  Solving for p_rgh, Initial residual = 0.191579, Final residual = 0.00139966, No Iterations 204
time step continuity errors : sum local = 197.509, global = -0.0830331, cumulative = 2.49623
DILUPBiCGStab:  Solving for epsilon, Initial residual = 0, Final residual = 0, No Iterations 0
DILUPBiCGStab:  Solving for k, Initial residual = 0.0469495, Final residual = 0.00110719, No Iterations 1
ExecutionTime = 0.58 s  ClockTime = 1 s

Time = 8

DILUPBiCGStab:  Solving for Ux, Initial residual = 0.154827, Final residual = 0.0135942, No Iterations 1
DILUPBiCGStab:  Solving for Uy, Initial residual = 0.227934, Final residual = 0.0190583, No Iterations 1
DILUPBiCGStab:  Solving for Uz, Initial residual = 0.148605, Final residual = 0.00683353, No Iterations 1
DILUPBiCGStab:  Solving for e, Initial residual = 0.0486129, Final residual = 0.000369681, No Iterations 1
DICPCG:  Solving for p_rgh, Initial residual = 0.230295, Final residual = 0.00188631, No Iterations 204
time step continuity errors : sum local = 255.551, global = 0.0963333, cumulative = 2.59257
DILUPBiCGStab:  Solving for epsilon, Initial residual = 0, Final residual = 0, No Iterations 0
DILUPBiCGStab:  Solving for k, Initial residual = 0.0399566, Final residual = 0.00101906, No Iterations 1
ExecutionTime = 0.64 s  ClockTime = 1 s

Time = 9

DILUPBiCGStab:  Solving for Ux, Initial residual = 0.0653182, Final residual = 0.00479307, No Iterations 1
DILUPBiCGStab:  Solving for Uy, Initial residual = 0.116719, Final residual = 0.0014665, No Iterations 1
DILUPBiCGStab:  Solving for Uz, Initial residual = 0.135062, Final residual = 0.00597254, No Iterations 1
DILUPBiCGStab:  Solving for e, Initial residual = 0.0435293, Final residual = 0.000370766, No Iterations 1
DICPCG:  Solving for p_rgh, Initial residual = 0.505681, Final residual = 0.00472673, No Iterations 208
time step continuity errors : sum local = 305.717, global = -0.494663, cumulative = 2.0979
DILUPBiCGStab:  Solving for epsilon, Initial residual = 0, Final residual = 0, No Iterations 0
DILUPBiCGStab:  Solving for k, Initial residual = 0.0353198, Final residual = 0.000996449, No Iterations 1
ExecutionTime = 0.7 s  ClockTime = 1 s

Time = 10

DILUPBiCGStab:  Solving for Ux, Initial residual = 0.0997679, Final residual = 0.00933584, No Iterations 1
DILUPBiCGStab:  Solving for Uy, Initial residual = 0.146938, Final residual = 0.0127128, No Iterations 1
DILUPBiCGStab:  Solving for Uz, Initial residual = 0.14008, Final residual = 0.00546797, No Iterations 1
DILUPBiCGStab:  Solving for e, Initial residual = 0.0388507, Final residual = 0.000380385, No Iterations 1
DICPCG:  Solving for p_rgh, Initial residual = 0.391115, Final residual = 0.00388236, No Iterations 103
time step continuity errors : sum local = 274.953, global = -18.0706, cumulative = -15.9727
DILUPBiCGStab:  Solving for epsilon, Initial residual = 0, Final residual = 0, No Iterations 0
DILUPBiCGStab:  Solving for k, Initial residual = 0.0317586, Final residual = 0.00102585, No Iterations 1
ExecutionTime = 0.74 s  ClockTime = 1 s

Time = 11

DILUPBiCGStab:  Solving for Ux, Initial residual = 0.0947592, Final residual = 0.0013801, No Iterations 1
DILUPBiCGStab:  Solving for Uy, Initial residual = 0.154553, Final residual = 0.00173979, No Iterations 1
DILUPBiCGStab:  Solving for Uz, Initial residual = 0.114316, Final residual = 0.0059629, No Iterations 1
DILUPBiCGStab:  Solving for e, Initial residual = 0.0317333, Final residual = 0.000267131, No Iterations 1
DICPCG:  Solving for p_rgh, Initial residual = 0.298833, Final residual = 0.00222976, No Iterations 203
time step continuity errors : sum local = 179.223, global = 0.439972, cumulative = -15.5328
DILUPBiCGStab:  Solving for epsilon, Initial residual = 0, Final residual = 0, No Iterations 0
DILUPBiCGStab:  Solving for k, Initial residual = 0.0287142, Final residual = 0.00106788, No Iterations 1
ExecutionTime = 0.81 s  ClockTime = 1 s

Time = 12

DILUPBiCGStab:  Solving for Ux, Initial residual = 0.0512838, Final residual = 0.00439444, No Iterations 1
DILUPBiCGStab:  Solving for Uy, Initial residual = 0.0970857, Final residual = 0.00102624, No Iterations 1
DILUPBiCGStab:  Solving for Uz, Initial residual = 0.0934696, Final residual = 0.00527598, No Iterations 1
DILUPBiCGStab:  Solving for e, Initial residual = 0.0286657, Final residual = 0.00020722, No Iterations 1
DICPCG:  Solving for p_rgh, Initial residual = 0.4682, Final residual = 0.0041561, No Iterations 190
time step continuity errors : sum local = 182.102, global = -0.442237, cumulative = -15.975
DILUPBiCGStab:  Solving for epsilon, Initial residual = 0, Final residual = 0, No Iterations 0
DILUPBiCGStab:  Solving for k, Initial residual = 0.026181, Final residual = 0.00107441, No Iterations 1
ExecutionTime = 0.86 s  ClockTime = 1 s

Time = 13

DILUPBiCGStab:  Solving for Ux, Initial residual = 0.0646735, Final residual = 0.00538845, No Iterations 1
DILUPBiCGStab:  Solving for Uy, Initial residual = 0.102225, Final residual = 0.00111562, No Iterations 1
DILUPBiCGStab:  Solving for Uz, Initial residual = 0.0805743, Final residual = 0.00491031, No Iterations 1
DILUPBiCGStab:  Solving for e, Initial residual = 0.0262108, Final residual = 0.000186241, No Iterations 1
DICPCG:  Solving for p_rgh, Initial residual = 0.215207, Final residual = 0.00199506, No Iterations 199
time step continuity errors : sum local = 158.522, global = 0.29782, cumulative = -15.6772
DILUPBiCGStab:  Solving for epsilon, Initial residual = 0, Final residual = 0, No Iterations 0
DILUPBiCGStab:  Solving for k, Initial residual = 0.0241274, Final residual = 0.00107205, No Iterations 1
ExecutionTime = 0.92 s  ClockTime = 1 s

Time = 14

DILUPBiCGStab:  Solving for Ux, Initial residual = 0.0501205, Final residual = 0.00425913, No Iterations 1
DILUPBiCGStab:  Solving for Uy, Initial residual = 0.078903, Final residual = 0.00745111, No Iterations 1
DILUPBiCGStab:  Solving for Uz, Initial residual = 0.0839073, Final residual = 0.00429331, No Iterations 1
DILUPBiCGStab:  Solving for e, Initial residual = 0.0233093, Final residual = 0.000143325, No Iterations 1
DICPCG:  Solving for p_rgh, Initial residual = 0.253483, Final residual = 0.00219229, No Iterations 200
time step continuity errors : sum local = 139.967, global = -0.525817, cumulative = -16.203
DILUPBiCGStab:  Solving for epsilon, Initial residual = 0, Final residual = 0, No Iterations 0
DILUPBiCGStab:  Solving for k, Initial residual = 0.0223303, Final residual = 0.00104059, No Iterations 1
ExecutionTime = 0.98 s  ClockTime = 1 s

Time = 15

DILUPBiCGStab:  Solving for Ux, Initial residual = 0.0335508, Final residual = 0.00275478, No Iterations 1
DILUPBiCGStab:  Solving for Uy, Initial residual = 0.0568402, Final residual = 0.00444897, No Iterations 1
DILUPBiCGStab:  Solving for Uz, Initial residual = 0.0804689, Final residual = 0.00423013, No Iterations 1
DILUPBiCGStab:  Solving for e, Initial residual = 0.0221548, Final residual = 0.000147361, No Iterations 1
DICPCG:  Solving for p_rgh, Initial residual = 0.444513, Final residual = 0.00344104, No Iterations 201
time step continuity errors : sum local = 102.426, global = -0.367378, cumulative = -16.5704
DILUPBiCGStab:  Solving for epsilon, Initial residual = 0, Final residual = 0, No Iterations 0
DILUPBiCGStab:  Solving for k, Initial residual = 0.0208464, Final residual = 0.000980983, No Iterations 1
ExecutionTime = 1.04 s  ClockTime = 1 s

Time = 16

DILUPBiCGStab:  Solving for Ux, Initial residual = 0.0408415, Final residual = 0.00376434, No Iterations 1
DILUPBiCGStab:  Solving for Uy, Initial residual = 0.0688751, Final residual = 0.00487941, No Iterations 1
DILUPBiCGStab:  Solving for Uz, Initial residual = 0.0754756, Final residual = 0.00398196, No Iterations 1
DILUPBiCGStab:  Solving for e, Initial residual = 0.0205365, Final residual = 0.000135804, No Iterations 1
DICPCG:  Solving for p_rgh, Initial residual = 0.406176, Final residual = 0.00336965, No Iterations 200
time step continuity errors : sum local = 100.522, global = 0.0907122, cumulative = -16.4797
DILUPBiCGStab:  Solving for epsilon, Initial residual = 0, Final residual = 0, No Iterations 0
DILUPBiCGStab:  Solving for k, Initial residual = 0.0194434, Final residual = 0.000911843, No Iterations 1
ExecutionTime = 1.09 s  ClockTime = 1 s

Time = 17

DILUPBiCGStab:  Solving for Ux, Initial residual = 0.0320505, Final residual = 0.0030208, No Iterations 1
DILUPBiCGStab:  Solving for Uy, Initial residual = 0.059921, Final residual = 0.00402067, No Iterations 1
DILUPBiCGStab:  Solving for Uz, Initial residual = 0.0776198, Final residual = 0.00394732, No Iterations 1
DILUPBiCGStab:  Solving for e, Initial residual = 0.018931, Final residual = 0.000113983, No Iterations 1
DICPCG:  Solving for p_rgh, Initial residual = 0.570672, Final residual = 0.00467321, No Iterations 202
time step continuity errors : sum local = 92.605, global = -0.152205, cumulative = -16.6319
DILUPBiCGStab:  Solving for epsilon, Initial residual = 0, Final residual = 0, No Iterations 0
DILUPBiCGStab:  Solving for k, Initial residual = 0.0182676, Final residual = 0.000856254, No Iterations 1
ExecutionTime = 1.15 s  ClockTime = 1 s

Time = 18

DILUPBiCGStab:  Solving for Ux, Initial residual = 0.0254037, Final residual = 0.00168517, No Iterations 1
DILUPBiCGStab:  Solving for Uy, Initial residual = 0.0545648, Final residual = 0.0038199, No Iterations 1
DILUPBiCGStab:  Solving for Uz, Initial residual = 0.0778837, Final residual = 0.00377218, No Iterations 1
DILUPBiCGStab:  Solving for e, Initial residual = 0.0180337, Final residual = 0.000107196, No Iterations 1
DICPCG:  Solving for p_rgh, Initial residual = 0.222822, Final residual = 0.00213614, No Iterations 180
time step continuity errors : sum local = 92.491, global = -3.14814, cumulative = -19.78
DILUPBiCGStab:  Solving for epsilon, Initial residual = 0, Final residual = 0, No Iterations 0
DILUPBiCGStab:  Solving for k, Initial residual = 0.0172845, Final residual = 0.00081887, No Iterations 1
ExecutionTime = 1.21 s  ClockTime = 1 s

Time = 19

DILUPBiCGStab:  Solving for Ux, Initial residual = 0.0273236, Final residual = 0.00167754, No Iterations 1
DILUPBiCGStab:  Solving for Uy, Initial residual = 0.0503244, Final residual = 0.00391398, No Iterations 1
DILUPBiCGStab:  Solving for Uz, Initial residual = 0.0736811, Final residual = 0.00361615, No Iterations 1
DILUPBiCGStab:  Solving for e, Initial residual = 0.0170603, Final residual = 0.000102996, No Iterations 1
DICPCG:  Solving for p_rgh, Initial residual = 0.223983, Final residual = 0.00216474, No Iterations 157
time step continuity errors : sum local = 85.6372, global = -0.56855, cumulative = -20.3486
DILUPBiCGStab:  Solving for epsilon, Initial residual = 0, Final residual = 0, No Iterations 0
DILUPBiCGStab:  Solving for k, Initial residual = 0.0166006, Final residual = 0.000796352, No Iterations 1
ExecutionTime = 1.26 s  ClockTime = 1 s

Time = 20

DILUPBiCGStab:  Solving for Ux, Initial residual = 0.0231762, Final residual = 0.00170404, No Iterations 1
DILUPBiCGStab:  Solving for Uy, Initial residual = 0.0355136, Final residual = 0.0027751, No Iterations 1
DILUPBiCGStab:  Solving for Uz, Initial residual = 0.0727096, Final residual = 0.00340593, No Iterations 1
DILUPBiCGStab:  Solving for e, Initial residual = 0.016156, Final residual = 9.43681e-05, No Iterations 1
DICPCG:  Solving for p_rgh, Initial residual = 0.280859, Final residual = 0.00231096, No Iterations 202
time step continuity errors : sum local = 72.855, global = 0.0522706, cumulative = -20.2963
DILUPBiCGStab:  Solving for epsilon, Initial residual = 0, Final residual = 0, No Iterations 0
DILUPBiCGStab:  Solving for k, Initial residual = 0.0160294, Final residual = 0.000767095, No Iterations 1
ExecutionTime = 1.32 s  ClockTime = 1 s

Time = 21

DILUPBiCGStab:  Solving for Ux, Initial residual = 0.0218756, Final residual = 0.00189377, No Iterations 1
DILUPBiCGStab:  Solving for Uy, Initial residual = 0.0363744, Final residual = 0.00239188, No Iterations 1
DILUPBiCGStab:  Solving for Uz, Initial residual = 0.0794749, Final residual = 0.00305166, No Iterations 1
DILUPBiCGStab:  Solving for e, Initial residual = 0.0154449, Final residual = 8.56013e-05, No Iterations 1
DICPCG:  Solving for p_rgh, Initial residual = 0.341372, Final residual = 0.00304807, No Iterations 191
time step continuity errors : sum local = 68.1811, global = -1.10648, cumulative = -21.4028
DILUPBiCGStab:  Solving for epsilon, Initial residual = 0, Final residual = 0, No Iterations 0
DILUPBiCGStab:  Solving for k, Initial residual = 0.0153872, Final residual = 0.000765057, No Iterations 1
ExecutionTime = 1.38 s  ClockTime = 1 s

Time = 22

DILUPBiCGStab:  Solving for Ux, Initial residual = 0.0212107, Final residual = 0.00202907, No Iterations 1
DILUPBiCGStab:  Solving for Uy, Initial residual = 0.0380638, Final residual = 0.00292017, No Iterations 1
DILUPBiCGStab:  Solving for Uz, Initial residual = 0.0675394, Final residual = 0.00315432, No Iterations 1
DILUPBiCGStab:  Solving for e, Initial residual = 0.0147664, Final residual = 8.32774e-05, No Iterations 1
DICPCG:  Solving for p_rgh, Initial residual = 0.372708, Final residual = 0.00342244, No Iterations 202
time step continuity errors : sum local = 65.1736, global = 0.394656, cumulative = -21.0081
DILUPBiCGStab:  Solving for epsilon, Initial residual = 0, Final residual = 0, No Iterations 0
DILUPBiCGStab:  Solving for k, Initial residual = 0.0149644, Final residual = 0.00078716, No Iterations 1
ExecutionTime = 1.44 s  ClockTime = 1 s

Time = 23

DILUPBiCGStab:  Solving for Ux, Initial residual = 0.0179391, Final residual = 0.00171033, No Iterations 1
DILUPBiCGStab:  Solving for Uy, Initial residual = 0.035962, Final residual = 0.00276251, No Iterations 1
DILUPBiCGStab:  Solving for Uz, Initial residual = 0.0642016, Final residual = 0.00299171, No Iterations 1
DILUPBiCGStab:  Solving for e, Initial residual = 0.0141208, Final residual = 8.30855e-05, No Iterations 1
DICPCG:  Solving for p_rgh, Initial residual = 0.28712, Final residual = 0.00198906, No Iterations 191
time step continuity errors : sum local = 43.682, global = -0.487471, cumulative = -21.4956
DILUPBiCGStab:  Solving for epsilon, Initial residual = 0, Final residual = 0, No Iterations 0
DILUPBiCGStab:  Solving for k, Initial residual = 0.0146502, Final residual = 0.000814668, No Iterations 1
ExecutionTime = 1.49 s  ClockTime = 1 s

Time = 24

DILUPBiCGStab:  Solving for Ux, Initial residual = 0.0165524, Final residual = 0.00135855, No Iterations 1
DILUPBiCGStab:  Solving for Uy, Initial residual = 0.0387594, Final residual = 0.00306132, No Iterations 1
DILUPBiCGStab:  Solving for Uz, Initial residual = 0.0592156, Final residual = 0.00257519, No Iterations 1
DILUPBiCGStab:  Solving for e, Initial residual = 0.0135422, Final residual = 8.46758e-05, No Iterations 1
DICPCG:  Solving for p_rgh, Initial residual = 0.208062, Final residual = 0.00196276, No Iterations 177
time step continuity errors : sum local = 52.9521, global = 0.904586, cumulative = -20.591
DILUPBiCGStab:  Solving for epsilon, Initial residual = 0, Final residual = 0, No Iterations 0
DILUPBiCGStab:  Solving for k, Initial residual = 0.0144926, Final residual = 0.000852708, No Iterations 1
ExecutionTime = 1.55 s  ClockTime = 2 s

Time = 25

DILUPBiCGStab:  Solving for Ux, Initial residual = 0.0159774, Final residual = 0.00124313, No Iterations 1
DILUPBiCGStab:  Solving for Uy, Initial residual = 0.0379178, Final residual = 0.00305037, No Iterations 1
DILUPBiCGStab:  Solving for Uz, Initial residual = 0.0572755, Final residual = 0.00242027, No Iterations 1
DILUPBiCGStab:  Solving for e, Initial residual = 0.012914, Final residual = 8.65038e-05, No Iterations 1
DICPCG:  Solving for p_rgh, Initial residual = 0.185255, Final residual = 0.00157908, No Iterations 202
time step continuity errors : sum local = 47.0897, global = 0.150566, cumulative = -20.4404
DILUPBiCGStab:  Solving for epsilon, Initial residual = 0, Final residual = 0, No Iterations 0
DILUPBiCGStab:  Solving for k, Initial residual = 0.014429, Final residual = 0.00086755, No Iterations 1
ExecutionTime = 1.61 s  ClockTime = 2 s

Time = 26

DILUPBiCGStab:  Solving for Ux, Initial residual = 0.0148069, Final residual = 0.00122046, No Iterations 1
DILUPBiCGStab:  Solving for Uy, Initial residual = 0.0354175, Final residual = 0.00303247, No Iterations 1
DILUPBiCGStab:  Solving for Uz, Initial residual = 0.0549555, Final residual = 0.00242174, No Iterations 1
DILUPBiCGStab:  Solving for e, Initial residual = 0.012425, Final residual = 9.35441e-05, No Iterations 1
DICPCG:  Solving for p_rgh, Initial residual = 0.195912, Final residual = 0.00182317, No Iterations 177
time step continuity errors : sum local = 56.9006, global = 1.2174, cumulative = -19.223
DILUPBiCGStab:  Solving for epsilon, Initial residual = 0, Final residual = 0, No Iterations 0
DILUPBiCGStab:  Solving for k, Initial residual = 0.0143579, Final residual = 0.000889828, No Iterations 1
ExecutionTime = 1.66 s  ClockTime = 2 s

Time = 27

DILUPBiCGStab:  Solving for Ux, Initial residual = 0.0151439, Final residual = 0.00132977, No Iterations 1
DILUPBiCGStab:  Solving for Uy, Initial residual = 0.0343446, Final residual = 0.00325992, No Iterations 1
DILUPBiCGStab:  Solving for Uz, Initial residual = 0.05261, Final residual = 0.00230325, No Iterations 1
DILUPBiCGStab:  Solving for e, Initial residual = 0.0121187, Final residual = 9.20719e-05, No Iterations 1
DICPCG:  Solving for p_rgh, Initial residual = 0.224772, Final residual = 0.00221643, No Iterations 62
time step continuity errors : sum local = 48.2985, global = -2.12101, cumulative = -21.344
DILUPBiCGStab:  Solving for epsilon, Initial residual = 0, Final residual = 0, No Iterations 0
DILUPBiCGStab:  Solving for k, Initial residual = 0.0141645, Final residual = 0.000923904, No Iterations 1
ExecutionTime = 1.7 s  ClockTime = 2 s

Time = 28

DILUPBiCGStab:  Solving for Ux, Initial residual = 0.015364, Final residual = 0.00139769, No Iterations 1
DILUPBiCGStab:  Solving for Uy, Initial residual = 0.0310606, Final residual = 0.000351746, No Iterations 1
DILUPBiCGStab:  Solving for Uz, Initial residual = 0.0521971, Final residual = 0.00233228, No Iterations 1
DILUPBiCGStab:  Solving for e, Initial residual = 0.0117396, Final residual = 9.31266e-05, No Iterations 1
DICPCG:  Solving for p_rgh, Initial residual = 0.212186, Final residual = 0.0019949, No Iterations 203
time step continuity errors : sum local = 43.839, global = -0.128261, cumulative = -21.4723
DILUPBiCGStab:  Solving for epsilon, Initial residual = 0, Final residual = 0, No Iterations 0
DILUPBiCGStab:  Solving for k, Initial residual = 0.0139314, Final residual = 0.000960948, No Iterations 1
ExecutionTime = 1.75 s  ClockTime = 2 s

Time = 29

DILUPBiCGStab:  Solving for Ux, Initial residual = 0.0147259, Final residual = 0.00130212, No Iterations 1
DILUPBiCGStab:  Solving for Uy, Initial residual = 0.0301418, Final residual = 0.0028102, No Iterations 1
DILUPBiCGStab:  Solving for Uz, Initial residual = 0.050287, Final residual = 0.00229821, No Iterations 1
DILUPBiCGStab:  Solving for e, Initial residual = 0.0115171, Final residual = 9.475e-05, No Iterations 1
DICPCG:  Solving for p_rgh, Initial residual = 0.189597, Final residual = 0.00159217, No Iterations 205
time step continuity errors : sum local = 37.0407, global = -0.0725666, cumulative = -21.5449
DILUPBiCGStab:  Solving for epsilon, Initial residual = 0, Final residual = 0, No Iterations 0
DILUPBiCGStab:  Solving for k, Initial residual = 0.0136634, Final residual = 0.000993786, No Iterations 1
ExecutionTime = 1.81 s  ClockTime = 2 s

Time = 30

DILUPBiCGStab:  Solving for Ux, Initial residual = 0.0144317, Final residual = 0.00118762, No Iterations 1
DILUPBiCGStab:  Solving for Uy, Initial residual = 0.0303061, Final residual = 0.00290087, No Iterations 1
DILUPBiCGStab:  Solving for Uz, Initial residual = 0.0488706, Final residual = 0.00222746, No Iterations 1
DILUPBiCGStab:  Solving for e, Initial residual = 0.011193, Final residual = 9.88703e-05, No Iterations 1
DICPCG:  Solving for p_rgh, Initial residual = 0.179675, Final residual = 0.00167547, No Iterations 79
time step continuity errors : sum local = 40.8754, global = 0.165124, cumulative = -21.3797
DILUPBiCGStab:  Solving for epsilon, Initial residual = 0, Final residual = 0, No Iterations 0
DILUPBiCGStab:  Solving for k, Initial residual = 0.0133459, Final residual = 0.00102402, No Iterations 1
ExecutionTime = 1.85 s  ClockTime = 2 s

Time = 31

DILUPBiCGStab:  Solving for Ux, Initial residual = 0.0141039, Final residual = 0.00113034, No Iterations 1
DILUPBiCGStab:  Solving for Uy, Initial residual = 0.0294562, Final residual = 0.000403824, No Iterations 1
DILUPBiCGStab:  Solving for Uz, Initial residual = 0.0480525, Final residual = 0.00220193, No Iterations 1
DILUPBiCGStab:  Solving for e, Initial residual = 0.010792, Final residual = 0.000105884, No Iterations 1
DICPCG:  Solving for p_rgh, Initial residual = 0.169564, Final residual = 0.00130502, No Iterations 204
time step continuity errors : sum local = 32.4942, global = -0.00399665, cumulative = -21.3837
DILUPBiCGStab:  Solving for epsilon, Initial residual = 0, Final residual = 0, No Iterations 0
DILUPBiCGStab:  Solving for k, Initial residual = 0.0129649, Final residual = 0.00104527, No Iterations 1
ExecutionTime = 1.91 s  ClockTime = 2 s

Time = 32

DILUPBiCGStab:  Solving for Ux, Initial residual = 0.0139653, Final residual = 0.00113239, No Iterations 1
DILUPBiCGStab:  Solving for Uy, Initial residual = 0.0289116, Final residual = 0.00043302, No Iterations 1
DILUPBiCGStab:  Solving for Uz, Initial residual = 0.0463665, Final residual = 0.00202912, No Iterations 1
DILUPBiCGStab:  Solving for e, Initial residual = 0.0104096, Final residual = 0.000117634, No Iterations 1
DICPCG:  Solving for p_rgh, Initial residual = 0.150183, Final residual = 0.00145882, No Iterations 73
time step continuity errors : sum local = 37.3759, global = 7.28464, cumulative = -14.0991
DILUPBiCGStab:  Solving for epsilon, Initial residual = 0, Final residual = 0, No Iterations 0
DILUPBiCGStab:  Solving for k, Initial residual = 0.0124546, Final residual = 0.00105916, No Iterations 1
ExecutionTime = 1.95 s  ClockTime = 2 s

Time = 33

DILUPBiCGStab:  Solving for Ux, Initial residual = 0.0138461, Final residual = 0.00110874, No Iterations 1
DILUPBiCGStab:  Solving for Uy, Initial residual = 0.0282426, Final residual = 0.00279409, No Iterations 1
DILUPBiCGStab:  Solving for Uz, Initial residual = 0.0437933, Final residual = 0.00189013, No Iterations 1
DILUPBiCGStab:  Solving for e, Initial residual = 0.0101293, Final residual = 0.000136521, No Iterations 1
DICPCG:  Solving for p_rgh, Initial residual = 0.138066, Final residual = 0.001057, No Iterations 204
time step continuity errors : sum local = 27.6741, global = 0.0679447, cumulative = -14.0311
DILUPBiCGStab:  Solving for epsilon, Initial residual = 0, Final residual = 0, No Iterations 0
DILUPBiCGStab:  Solving for k, Initial residual = 0.0120939, Final residual = 0.00106765, No Iterations 1
ExecutionTime = 2.01 s  ClockTime = 2 s

Time = 34

DILUPBiCGStab:  Solving for Ux, Initial residual = 0.0136634, Final residual = 0.00106134, No Iterations 1
DILUPBiCGStab:  Solving for Uy, Initial residual = 0.0272553, Final residual = 0.00247883, No Iterations 1
DILUPBiCGStab:  Solving for Uz, Initial residual = 0.0412802, Final residual = 0.00174341, No Iterations 1
DILUPBiCGStab:  Solving for e, Initial residual = 0.0100425, Final residual = 0.000137258, No Iterations 1
DICPCG:  Solving for p_rgh, Initial residual = 0.146024, Final residual = 0.00129877, No Iterations 70
time step continuity errors : sum local = 30.6745, global = -1.12834, cumulative = -15.1595
DILUPBiCGStab:  Solving for epsilon, Initial residual = 0, Final residual = 0, No Iterations 0
DILUPBiCGStab:  Solving for k, Initial residual = 0.0116125, Final residual = 0.00105979, No Iterations 1
ExecutionTime = 2.05 s  ClockTime = 2 s

Time = 35

DILUPBiCGStab:  Solving for Ux, Initial residual = 0.0133528, Final residual = 0.000969664, No Iterations 1
DILUPBiCGStab:  Solving for Uy, Initial residual = 0.0248801, Final residual = 0.00211047, No Iterations 1
DILUPBiCGStab:  Solving for Uz, Initial residual = 0.0392376, Final residual = 0.00162778, No Iterations 1
DILUPBiCGStab:  Solving for e, Initial residual = 0.00983826, Final residual = 0.000137675, No Iterations 1
DICPCG:  Solving for p_rgh, Initial residual = 0.150307, Final residual = 0.00142919, No Iterations 182
time step continuity errors : sum local = 31.3888, global = 0.900879, cumulative = -14.2586
DILUPBiCGStab:  Solving for epsilon, Initial residual = 0, Final residual = 0, No Iterations 0
DILUPBiCGStab:  Solving for k, Initial residual = 0.0111022, Final residual = 0.00104563, No Iterations 1
ExecutionTime = 2.1 s  ClockTime = 2 s

Time = 36

DILUPBiCGStab:  Solving for Ux, Initial residual = 0.013016, Final residual = 0.000870907, No Iterations 1
DILUPBiCGStab:  Solving for Uy, Initial residual = 0.0224429, Final residual = 0.00172999, No Iterations 1
DILUPBiCGStab:  Solving for Uz, Initial residual = 0.0378507, Final residual = 0.00156765, No Iterations 1
DILUPBiCGStab:  Solving for e, Initial residual = 0.00959371, Final residual = 0.000138742, No Iterations 1
DICPCG:  Solving for p_rgh, Initial residual = 0.140074, Final residual = 0.00121989, No Iterations 204
time step continuity errors : sum local = 27.3742, global = -0.0802625, cumulative = -14.3389
DILUPBiCGStab:  Solving for epsilon, Initial residual = 0, Final residual = 0, No Iterations 0
DILUPBiCGStab:  Solving for k, Initial residual = 0.0105851, Final residual = 0.00102465, No Iterations 1
ExecutionTime = 2.17 s  ClockTime = 2 s

Time = 37

DILUPBiCGStab:  Solving for Ux, Initial residual = 0.0126192, Final residual = 0.00077905, No Iterations 1
DILUPBiCGStab:  Solving for Uy, Initial residual = 0.0210964, Final residual = 0.00170393, No Iterations 1
DILUPBiCGStab:  Solving for Uz, Initial residual = 0.0361259, Final residual = 0.0014438, No Iterations 1
DILUPBiCGStab:  Solving for e, Initial residual = 0.00935271, Final residual = 0.000136975, No Iterations 1
DICPCG:  Solving for p_rgh, Initial residual = 0.128627, Final residual = 0.00124458, No Iterations 44
time step continuity errors : sum local = 29.0617, global = -2.1107, cumulative = -16.4496
DILUPBiCGStab:  Solving for epsilon, Initial residual = 0, Final residual = 0, No Iterations 0
DILUPBiCGStab:  Solving for k, Initial residual = 0.0101205, Final residual = 0.00100948, No Iterations 1
ExecutionTime = 2.2 s  ClockTime = 2 s

Time = 38

DILUPBiCGStab:  Solving for Ux, Initial residual = 0.0123583, Final residual = 0.000763683, No Iterations 1
DILUPBiCGStab:  Solving for Uy, Initial residual = 0.0205533, Final residual = 0.00179861, No Iterations 1
DILUPBiCGStab:  Solving for Uz, Initial residual = 0.0352737, Final residual = 0.00138632, No Iterations 1
DILUPBiCGStab:  Solving for e, Initial residual = 0.00915702, Final residual = 0.000131676, No Iterations 1
DICPCG:  Solving for p_rgh, Initial residual = 0.125601, Final residual = 0.00122118, No Iterations 72
time step continuity errors : sum local = 28.7913, global = 0.669222, cumulative = -15.7803
DILUPBiCGStab:  Solving for epsilon, Initial residual = 0, Final residual = 0, No Iterations 0
DILUPBiCGStab:  Solving for k, Initial residual = 0.00967553, Final residual = 0.000138189, No Iterations 1
ExecutionTime = 2.24 s  ClockTime = 2 s

Time = 39

DILUPBiCGStab:  Solving for Ux, Initial residual = 0.0120487, Final residual = 0.000727293, No Iterations 1
DILUPBiCGStab:  Solving for Uy, Initial residual = 0.0203821, Final residual = 0.00189471, No Iterations 1
DILUPBiCGStab:  Solving for Uz, Initial residual = 0.0339711, Final residual = 0.00128294, No Iterations 1
DILUPBiCGStab:  Solving for e, Initial residual = 0.00900641, Final residual = 0.000122146, No Iterations 1
DICPCG:  Solving for p_rgh, Initial residual = 0.135995, Final residual = 0.00135011, No Iterations 103
time step continuity errors : sum local = 32.8604, global = 3.73726, cumulative = -12.0431
DILUPBiCGStab:  Solving for epsilon, Initial residual = 0, Final residual = 0, No Iterations 0
DILUPBiCGStab:  Solving for k, Initial residual = 0.00919423, Final residual = 0.000131532, No Iterations 1
ExecutionTime = 2.29 s  ClockTime = 2 s

Time = 40

DILUPBiCGStab:  Solving for Ux, Initial residual = 0.0117984, Final residual = 0.000713678, No Iterations 1
DILUPBiCGStab:  Solving for Uy, Initial residual = 0.01997, Final residual = 0.00191338, No Iterations 1
DILUPBiCGStab:  Solving for Uz, Initial residual = 0.0332086, Final residual = 0.0012979, No Iterations 1
DILUPBiCGStab:  Solving for e, Initial residual = 0.00886727, Final residual = 0.000110218, No Iterations 1
DICPCG:  Solving for p_rgh, Initial residual = 0.115581, Final residual = 0.00114449, No Iterations 85
time step continuity errors : sum local = 27.8912, global = 2.3758, cumulative = -9.66728
DILUPBiCGStab:  Solving for epsilon, Initial residual = 0, Final residual = 0, No Iterations 0
DILUPBiCGStab:  Solving for k, Initial residual = 0.00882873, Final residual = 0.000127713, No Iterations 1
ExecutionTime = 2.32 s  ClockTime = 2 s

Time = 41

DILUPBiCGStab:  Solving for Ux, Initial residual = 0.0116889, Final residual = 0.000709067, No Iterations 1
DILUPBiCGStab:  Solving for Uy, Initial residual = 0.0196872, Final residual = 0.00188043, No Iterations 1
DILUPBiCGStab:  Solving for Uz, Initial residual = 0.0311454, Final residual = 0.00129299, No Iterations 1
DILUPBiCGStab:  Solving for e, Initial residual = 0.00870768, Final residual = 9.89626e-05, No Iterations 1
DICPCG:  Solving for p_rgh, Initial residual = 0.114453, Final residual = 0.00110805, No Iterations 73
time step continuity errors : sum local = 28.2128, global = 1.74871, cumulative = -7.91857
DILUPBiCGStab:  Solving for epsilon, Initial residual = 0, Final residual = 0, No Iterations 0
DILUPBiCGStab:  Solving for k, Initial residual = 0.00854752, Final residual = 0.000125295, No Iterations 1
ExecutionTime = 2.36 s  ClockTime = 2 s

Time = 42

DILUPBiCGStab:  Solving for Ux, Initial residual = 0.0117465, Final residual = 0.000735842, No Iterations 1
DILUPBiCGStab:  Solving for Uy, Initial residual = 0.0194236, Final residual = 0.00182213, No Iterations 1
DILUPBiCGStab:  Solving for Uz, Initial residual = 0.0296461, Final residual = 0.00137245, No Iterations 1
DILUPBiCGStab:  Solving for e, Initial residual = 0.00861037, Final residual = 8.69042e-05, No Iterations 1
DICPCG:  Solving for p_rgh, Initial residual = 0.11592, Final residual = 0.00112786, No Iterations 43
time step continuity errors : sum local = 29.6223, global = 1.1059, cumulative = -6.81268
DILUPBiCGStab:  Solving for epsilon, Initial residual = 0, Final residual = 0, No Iterations 0
DILUPBiCGStab:  Solving for k, Initial residual = 0.00834482, Final residual = 0.000125235, No Iterations 1
ExecutionTime = 2.39 s  ClockTime = 2 s

Time = 43

DILUPBiCGStab:  Solving for Ux, Initial residual = 0.01176, Final residual = 0.000742066, No Iterations 1
DILUPBiCGStab:  Solving for Uy, Initial residual = 0.0188679, Final residual = 0.00174123, No Iterations 1
DILUPBiCGStab:  Solving for Uz, Initial residual = 0.0283342, Final residual = 0.00151736, No Iterations 1
DILUPBiCGStab:  Solving for e, Initial residual = 0.00843315, Final residual = 6.99809e-05, No Iterations 1
DICPCG:  Solving for p_rgh, Initial residual = 0.126037, Final residual = 0.00100573, No Iterations 46
time step continuity errors : sum local = 25.5416, global = -3.73441, cumulative = -10.5471
DILUPBiCGStab:  Solving for epsilon, Initial residual = 0, Final residual = 0, No Iterations 0
DILUPBiCGStab:  Solving for k, Initial residual = 0.00818269, Final residual = 0.000124783, No Iterations 1
ExecutionTime = 2.42 s  ClockTime = 2 s

Time = 44

DILUPBiCGStab:  Solving for Ux, Initial residual = 0.0118188, Final residual = 0.000736096, No Iterations 1
DILUPBiCGStab:  Solving for Uy, Initial residual = 0.0188458, Final residual = 0.00163114, No Iterations 1
DILUPBiCGStab:  Solving for Uz, Initial residual = 0.0274653, Final residual = 0.0013262, No Iterations 1
DILUPBiCGStab:  Solving for e, Initial residual = 0.00822806, Final residual = 5.8889e-05, No Iterations 1
DICPCG:  Solving for p_rgh, Initial residual = 0.110787, Final residual = 0.00103689, No Iterations 160
time step continuity errors : sum local = 26.0307, global = -0.996969, cumulative = -11.5441
DILUPBiCGStab:  Solving for epsilon, Initial residual = 0, Final residual = 0, No Iterations 0
DILUPBiCGStab:  Solving for k, Initial residual = 0.00801545, Final residual = 0.000124872, No Iterations 1
ExecutionTime = 2.48 s  ClockTime = 2 s

Time = 45

DILUPBiCGStab:  Solving for Ux, Initial residual = 0.0117782, Final residual = 0.000728676, No Iterations 1
DILUPBiCGStab:  Solving for Uy, Initial residual = 0.0190852, Final residual = 0.0016531, No Iterations 1
DILUPBiCGStab:  Solving for Uz, Initial residual = 0.0268625, Final residual = 0.00126438, No Iterations 1
DILUPBiCGStab:  Solving for e, Initial residual = 0.00809152, Final residual = 4.75131e-05, No Iterations 1
DICPCG:  Solving for p_rgh, Initial residual = 0.106374, Final residual = 0.000916557, No Iterations 209
time step continuity errors : sum local = 23.3249, global = -0.0292271, cumulative = -11.5733
DILUPBiCGStab:  Solving for epsilon, Initial residual = 0, Final residual = 0, No Iterations 0
DILUPBiCGStab:  Solving for k, Initial residual = 0.00792218, Final residual = 0.000127185, No Iterations 1
ExecutionTime = 2.54 s  ClockTime = 3 s

Time = 46

DILUPBiCGStab:  Solving for Ux, Initial residual = 0.0115941, Final residual = 0.000726224, No Iterations 1
DILUPBiCGStab:  Solving for Uy, Initial residual = 0.0191487, Final residual = 0.00169085, No Iterations 1
DILUPBiCGStab:  Solving for Uz, Initial residual = 0.0264803, Final residual = 0.00123798, No Iterations 1
DILUPBiCGStab:  Solving for e, Initial residual = 0.00795716, Final residual = 4.14924e-05, No Iterations 1
DICPCG:  Solving for p_rgh, Initial residual = 0.100001, Final residual = 0.000979952, No Iterations 48
time step continuity errors : sum local = 25.442, global = 1.84104, cumulative = -9.73225
DILUPBiCGStab:  Solving for epsilon, Initial residual = 0, Final residual = 0, No Iterations 0
DILUPBiCGStab:  Solving for k, Initial residual = 0.00786617, Final residual = 0.000129713, No Iterations 1
ExecutionTime = 2.57 s  ClockTime = 3 s

Time = 47

DILUPBiCGStab:  Solving for Ux, Initial residual = 0.0114683, Final residual = 0.000729195, No Iterations 1
DILUPBiCGStab:  Solving for Uy, Initial residual = 0.0192841, Final residual = 0.00176462, No Iterations 1
DILUPBiCGStab:  Solving for Uz, Initial residual = 0.0261017, Final residual = 0.00117444, No Iterations 1
DILUPBiCGStab:  Solving for e, Initial residual = 0.00789268, Final residual = 4.7954e-05, No Iterations 1
DICPCG:  Solving for p_rgh, Initial residual = 0.0969518, Final residual = 0.000884409, No Iterations 204
time step continuity errors : sum local = 22.8753, global = 0.0629293, cumulative = -9.66932
DILUPBiCGStab:  Solving for epsilon, Initial residual = 0, Final residual = 0, No Iterations 0
DILUPBiCGStab:  Solving for k, Initial residual = 0.00788312, Final residual = 0.00013318, No Iterations 1
ExecutionTime = 2.63 s  ClockTime = 3 s

Time = 48

DILUPBiCGStab:  Solving for Ux, Initial residual = 0.0112935, Final residual = 0.000725804, No Iterations 1
DILUPBiCGStab:  Solving for Uy, Initial residual = 0.0195438, Final residual = 0.00183152, No Iterations 1
DILUPBiCGStab:  Solving for Uz, Initial residual = 0.0259145, Final residual = 0.00129719, No Iterations 1
DILUPBiCGStab:  Solving for e, Initial residual = 0.00791293, Final residual = 6.57989e-05, No Iterations 1
DICPCG:  Solving for p_rgh, Initial residual = 0.0944897, Final residual = 0.000936878, No Iterations 37
time step continuity errors : sum local = 23.8615, global = 2.08606, cumulative = -7.58327
DILUPBiCGStab:  Solving for epsilon, Initial residual = 0, Final residual = 0, No Iterations 0
DILUPBiCGStab:  Solving for k, Initial residual = 0.00791671, Final residual = 0.000135939, No Iterations 1
ExecutionTime = 2.66 s  ClockTime = 3 s

Time = 49

DILUPBiCGStab:  Solving for Ux, Initial residual = 0.0110542, Final residual = 0.000721943, No Iterations 1
DILUPBiCGStab:  Solving for Uy, Initial residual = 0.0197329, Final residual = 0.00186808, No Iterations 1
DILUPBiCGStab:  Solving for Uz, Initial residual = 0.0252364, Final residual = 0.00132171, No Iterations 1
DILUPBiCGStab:  Solving for e, Initial residual = 0.0079657, Final residual = 8.89444e-05, No Iterations 1
DICPCG:  Solving for p_rgh, Initial residual = 0.0896884, Final residual = 0.00087339, No Iterations 65
time step continuity errors : sum local = 22.3382, global = -1.95153, cumulative = -9.5348
DILUPBiCGStab:  Solving for epsilon, Initial residual = 0, Final residual = 0, No Iterations 0
DILUPBiCGStab:  Solving for k, Initial residual = 0.00803354, Final residual = 0.000140092, No Iterations 1
ExecutionTime = 2.7 s  ClockTime = 3 s

Time = 50

DILUPBiCGStab:  Solving for Ux, Initial residual = 0.01077, Final residual = 0.000716763, No Iterations 1
DILUPBiCGStab:  Solving for Uy, Initial residual = 0.0200352, Final residual = 0.00188991, No Iterations 1
DILUPBiCGStab:  Solving for Uz, Initial residual = 0.0255015, Final residual = 0.00135205, No Iterations 1
DILUPBiCGStab:  Solving for e, Initial residual = 0.00802482, Final residual = 0.000118053, No Iterations 1
DICPCG:  Solving for p_rgh, Initial residual = 0.0880018, Final residual = 0.000721534, No Iterations 204
time step continuity errors : sum local = 18.6581, global = 0.0161274, cumulative = -9.51867
DILUPBiCGStab:  Solving for epsilon, Initial residual = 0, Final residual = 0, No Iterations 0
DILUPBiCGStab:  Solving for k, Initial residual = 0.00813878, Final residual = 0.000143047, No Iterations 1
ExecutionTime = 2.75 s  ClockTime = 3 s

Time = 51

DILUPBiCGStab:  Solving for Ux, Initial residual = 0.0104117, Final residual = 0.00071165, No Iterations 1
DILUPBiCGStab:  Solving for Uy, Initial residual = 0.0201817, Final residual = 0.00190031, No Iterations 1
DILUPBiCGStab:  Solving for Uz, Initial residual = 0.0259344, Final residual = 0.0013813, No Iterations 1
DILUPBiCGStab:  Solving for e, Initial residual = 0.00809187, Final residual = 0.000156344, No Iterations 1
DICPCG:  Solving for p_rgh, Initial residual = 0.0947622, Final residual = 0.000922135, No Iterations 57
time step continuity errors : sum local = 24.7385, global = -2.93827, cumulative = -12.4569
DILUPBiCGStab:  Solving for epsilon, Initial residual = 0, Final residual = 0, No Iterations 0
DILUPBiCGStab:  Solving for k, Initial residual = 0.00832946, Final residual = 0.000147574, No Iterations 1
ExecutionTime = 2.79 s  ClockTime = 3 s

Time = 52

DILUPBiCGStab:  Solving for Ux, Initial residual = 0.0101782, Final residual = 0.000704635, No Iterations 1
DILUPBiCGStab:  Solving for Uy, Initial residual = 0.0202613, Final residual = 0.00189513, No Iterations 1
DILUPBiCGStab:  Solving for Uz, Initial residual = 0.0258695, Final residual = 0.0013698, No Iterations 1
DILUPBiCGStab:  Solving for e, Initial residual = 0.00815007, Final residual = 0.000186703, No Iterations 1
DICPCG:  Solving for p_rgh, Initial residual = 0.0907849, Final residual = 0.000848405, No Iterations 60
time step continuity errors : sum local = 22.6458, global = -1.94552, cumulative = -14.4025
DILUPBiCGStab:  Solving for epsilon, Initial residual = 0, Final residual = 0, No Iterations 0
DILUPBiCGStab:  Solving for k, Initial residual = 0.00847507, Final residual = 0.00015072, No Iterations 1
ExecutionTime = 2.82 s  ClockTime = 3 s

Time = 53

DILUPBiCGStab:  Solving for Ux, Initial residual = 0.00995577, Final residual = 0.000691267, No Iterations 1
DILUPBiCGStab:  Solving for Uy, Initial residual = 0.0200473, Final residual = 0.00183866, No Iterations 1
DILUPBiCGStab:  Solving for Uz, Initial residual = 0.0258704, Final residual = 0.00135715, No Iterations 1
DILUPBiCGStab:  Solving for e, Initial residual = 0.008196, Final residual = 0.000211029, No Iterations 1
DICPCG:  Solving for p_rgh, Initial residual = 0.0870633, Final residual = 0.000841356, No Iterations 62
time step continuity errors : sum local = 22.3775, global = -1.87502, cumulative = -16.2775
DILUPBiCGStab:  Solving for epsilon, Initial residual = 0, Final residual = 0, No Iterations 0
DILUPBiCGStab:  Solving for k, Initial residual = 0.00866824, Final residual = 0.000153681, No Iterations 1
ExecutionTime = 2.85 s  ClockTime = 3 s

Time = 54

DILUPBiCGStab:  Solving for Ux, Initial residual = 0.00974721, Final residual = 0.000671742, No Iterations 1
DILUPBiCGStab:  Solving for Uy, Initial residual = 0.0198508, Final residual = 0.00175985, No Iterations 1
DILUPBiCGStab:  Solving for Uz, Initial residual = 0.0263516, Final residual = 0.00138628, No Iterations 1
DILUPBiCGStab:  Solving for e, Initial residual = 0.00823431, Final residual = 0.000226012, No Iterations 1
DICPCG:  Solving for p_rgh, Initial residual = 0.0823992, Final residual = 0.000789156, No Iterations 78
time step continuity errors : sum local = 20.8842, global = 0.0771162, cumulative = -16.2004
DILUPBiCGStab:  Solving for epsilon, Initial residual = 0, Final residual = 0, No Iterations 0
DILUPBiCGStab:  Solving for k, Initial residual = 0.00887319, Final residual = 0.000153131, No Iterations 1
ExecutionTime = 2.89 s  ClockTime = 3 s

Time = 55

DILUPBiCGStab:  Solving for Ux, Initial residual = 0.00957805, Final residual = 0.000661626, No Iterations 1
DILUPBiCGStab:  Solving for Uy, Initial residual = 0.0199379, Final residual = 0.00170237, No Iterations 1
DILUPBiCGStab:  Solving for Uz, Initial residual = 0.0260221, Final residual = 0.00134011, No Iterations 1
DILUPBiCGStab:  Solving for e, Initial residual = 0.00828865, Final residual = 0.000223132, No Iterations 1
DICPCG:  Solving for p_rgh, Initial residual = 0.0874742, Final residual = 0.000853029, No Iterations 81
time step continuity errors : sum local = 22.6185, global = 3.41447, cumulative = -12.7859
DILUPBiCGStab:  Solving for epsilon, Initial residual = 0, Final residual = 0, No Iterations 0
DILUPBiCGStab:  Solving for k, Initial residual = 0.00910108, Final residual = 0.000161566, No Iterations 1
ExecutionTime = 2.93 s  ClockTime = 3 s

Time = 56

DILUPBiCGStab:  Solving for Ux, Initial residual = 0.00959733, Final residual = 0.000628687, No Iterations 1
DILUPBiCGStab:  Solving for Uy, Initial residual = 0.0203775, Final residual = 0.00165114, No Iterations 1
DILUPBiCGStab:  Solving for Uz, Initial residual = 0.0262426, Final residual = 0.00135519, No Iterations 1
DILUPBiCGStab:  Solving for e, Initial residual = 0.00835076, Final residual = 0.000191487, No Iterations 1
DICPCG:  Solving for p_rgh, Initial residual = 0.0854693, Final residual = 0.000680737, No Iterations 204
time step continuity errors : sum local = 17.7727, global = 0.00578278, cumulative = -12.7801
DILUPBiCGStab:  Solving for epsilon, Initial residual = 0, Final residual = 0, No Iterations 0
DILUPBiCGStab:  Solving for k, Initial residual = 0.00936653, Final residual = 0.000171018, No Iterations 1
ExecutionTime = 2.99 s  ClockTime = 3 s

Time = 57

DILUPBiCGStab:  Solving for Ux, Initial residual = 0.0096326, Final residual = 0.000620413, No Iterations 1
DILUPBiCGStab:  Solving for Uy, Initial residual = 0.020125, Final residual = 0.00159908, No Iterations 1
DILUPBiCGStab:  Solving for Uz, Initial residual = 0.0263152, Final residual = 0.00127139, No Iterations 1
DILUPBiCGStab:  Solving for e, Initial residual = 0.00836672, Final residual = 0.000155225, No Iterations 1
DICPCG:  Solving for p_rgh, Initial residual = 0.0866126, Final residual = 0.000839491, No Iterations 49
time step continuity errors : sum local = 21.3108, global = -0.375438, cumulative = -13.1556
DILUPBiCGStab:  Solving for epsilon, Initial residual = 0, Final residual = 0, No Iterations 0
DILUPBiCGStab:  Solving for k, Initial residual = 0.00955032, Final residual = 0.000175954, No Iterations 1
ExecutionTime = 3.02 s  ClockTime = 3 s

Time = 58

DILUPBiCGStab:  Solving for Ux, Initial residual = 0.00949964, Final residual = 0.000626373, No Iterations 1
DILUPBiCGStab:  Solving for Uy, Initial residual = 0.0186249, Final residual = 0.00151248, No Iterations 1
DILUPBiCGStab:  Solving for Uz, Initial residual = 0.0263109, Final residual = 0.00127558, No Iterations 1
DILUPBiCGStab:  Solving for e, Initial residual = 0.00834966, Final residual = 0.000138561, No Iterations 1
DICPCG:  Solving for p_rgh, Initial residual = 0.0857152, Final residual = 0.00068434, No Iterations 211
time step continuity errors : sum local = 17.3346, global = -0.0675181, cumulative = -13.2231
DILUPBiCGStab:  Solving for epsilon, Initial residual = 0, Final residual = 0, No Iterations 0
DILUPBiCGStab:  Solving for k, Initial residual = 0.00970949, Final residual = 0.000179363, No Iterations 1
ExecutionTime = 3.08 s  ClockTime = 3 s

Time = 59

DILUPBiCGStab:  Solving for Ux, Initial residual = 0.00930555, Final residual = 0.000634458, No Iterations 1
DILUPBiCGStab:  Solving for Uy, Initial residual = 0.0167797, Final residual = 0.001441, No Iterations 1
DILUPBiCGStab:  Solving for Uz, Initial residual = 0.0273177, Final residual = 0.00139064, No Iterations 1
DILUPBiCGStab:  Solving for e, Initial residual = 0.00830376, Final residual = 0.000133054, No Iterations 1
DICPCG:  Solving for p_rgh, Initial residual = 0.0800061, Final residual = 0.000667149, No Iterations 206
time step continuity errors : sum local = 17.2139, global = -0.0822844, cumulative = -13.3054
DILUPBiCGStab:  Solving for epsilon, Initial residual = 0, Final residual = 0, No Iterations 0
DILUPBiCGStab:  Solving for k, Initial residual = 0.00986593, Final residual = 0.000183124, No Iterations 1
ExecutionTime = 3.14 s  ClockTime = 3 s

Time = 60

DILUPBiCGStab:  Solving for Ux, Initial residual = 0.0091928, Final residual = 0.000638566, No Iterations 1
DILUPBiCGStab:  Solving for Uy, Initial residual = 0.01589, Final residual = 0.00144241, No Iterations 1
DILUPBiCGStab:  Solving for Uz, Initial residual = 0.0278166, Final residual = 0.00135611, No Iterations 1
DILUPBiCGStab:  Solving for e, Initial residual = 0.0082388, Final residual = 0.000131805, No Iterations 1
DICPCG:  Solving for p_rgh, Initial residual = 0.075911, Final residual = 0.000722583, No Iterations 81
time step continuity errors : sum local = 18.8821, global = 0.970002, cumulative = -12.3354
DILUPBiCGStab:  Solving for epsilon, Initial residual = 0, Final residual = 0, No Iterations 0
DILUPBiCGStab:  Solving for k, Initial residual = 0.0099808, Final residual = 0.000184464, No Iterations 1
ExecutionTime = 3.18 s  ClockTime = 3 s

Time = 61

DILUPBiCGStab:  Solving for Ux, Initial residual = 0.00906403, Final residual = 0.000636287, No Iterations 1
DILUPBiCGStab:  Solving for Uy, Initial residual = 0.0156215, Final residual = 0.00147532, No Iterations 1
DILUPBiCGStab:  Solving for Uz, Initial residual = 0.0271312, Final residual = 0.00124243, No Iterations 1
DILUPBiCGStab:  Solving for e, Initial residual = 0.00815207, Final residual = 0.000128692, No Iterations 1
DICPCG:  Solving for p_rgh, Initial residual = 0.0795385, Final residual = 0.000636345, No Iterations 215
time step continuity errors : sum local = 16.9741, global = 0.0680451, cumulative = -12.2673
DILUPBiCGStab:  Solving for epsilon, Initial residual = 0, Final residual = 0, No Iterations 0
DILUPBiCGStab:  Solving for k, Initial residual = 0.0101251, Final residual = 0.000185684, No Iterations 1
ExecutionTime = 3.24 s  ClockTime = 3 s

Time = 62

DILUPBiCGStab:  Solving for Ux, Initial residual = 0.00890951, Final residual = 0.00062736, No Iterations 1
DILUPBiCGStab:  Solving for Uy, Initial residual = 0.0154555, Final residual = 0.00150489, No Iterations 1
DILUPBiCGStab:  Solving for Uz, Initial residual = 0.0274689, Final residual = 0.00186884, No Iterations 1
DILUPBiCGStab:  Solving for e, Initial residual = 0.00803465, Final residual = 0.000120957, No Iterations 1
DICPCG:  Solving for p_rgh, Initial residual = 0.0669893, Final residual = 0.000667872, No Iterations 83
time step continuity errors : sum local = 19.3059, global = 2.84828, cumulative = -9.41903
DILUPBiCGStab:  Solving for epsilon, Initial residual = 0, Final residual = 0, No Iterations 0
DILUPBiCGStab:  Solving for k, Initial residual = 0.0101998, Final residual = 0.000185426, No Iterations 1
ExecutionTime = 3.28 s  ClockTime = 3 s

Time = 63

DILUPBiCGStab:  Solving for Ux, Initial residual = 0.00868152, Final residual = 0.000600757, No Iterations 1
DILUPBiCGStab:  Solving for Uy, Initial residual = 0.0149208, Final residual = 0.000208479, No Iterations 1
DILUPBiCGStab:  Solving for Uz, Initial residual = 0.0287342, Final residual = 0.00124032, No Iterations 1
DILUPBiCGStab:  Solving for e, Initial residual = 0.00788352, Final residual = 0.00010821, No Iterations 1
DICPCG:  Solving for p_rgh, Initial residual = 0.0721832, Final residual = 0.000675373, No Iterations 65
time step continuity errors : sum local = 17.6154, global = 2.54458, cumulative = -6.87445
DILUPBiCGStab:  Solving for epsilon, Initial residual = 0, Final residual = 0, No Iterations 0
DILUPBiCGStab:  Solving for k, Initial residual = 0.0101915, Final residual = 0.000188289, No Iterations 1
ExecutionTime = 3.31 s  ClockTime = 3 s

Time = 64

DILUPBiCGStab:  Solving for Ux, Initial residual = 0.00836286, Final residual = 0.000572709, No Iterations 1
DILUPBiCGStab:  Solving for Uy, Initial residual = 0.0143726, Final residual = 0.00142846, No Iterations 1
DILUPBiCGStab:  Solving for Uz, Initial residual = 0.0280941, Final residual = 0.00119761, No Iterations 1
DILUPBiCGStab:  Solving for e, Initial residual = 0.00770429, Final residual = 9.482e-05, No Iterations 1
DICPCG:  Solving for p_rgh, Initial residual = 0.0678809, Final residual = 0.000629979, No Iterations 58
time step continuity errors : sum local = 16.0964, global = 0.785256, cumulative = -6.0892
DILUPBiCGStab:  Solving for epsilon, Initial residual = 0, Final residual = 0, No Iterations 0
DILUPBiCGStab:  Solving for k, Initial residual = 0.0101866, Final residual = 0.000189351, No Iterations 1
ExecutionTime = 3.35 s  ClockTime = 3 s

Time = 65

DILUPBiCGStab:  Solving for Ux, Initial residual = 0.00808369, Final residual = 0.000546515, No Iterations 1
DILUPBiCGStab:  Solving for Uy, Initial residual = 0.0142101, Final residual = 0.000208601, No Iterations 1
DILUPBiCGStab:  Solving for Uz, Initial residual = 0.0282092, Final residual = 0.00118692, No Iterations 1
DILUPBiCGStab:  Solving for e, Initial residual = 0.00753672, Final residual = 8.25546e-05, No Iterations 1
DICPCG:  Solving for p_rgh, Initial residual = 0.0678055, Final residual = 0.000666235, No Iterations 60
time step continuity errors : sum local = 17.309, global = -1.47734, cumulative = -7.56654
DILUPBiCGStab:  Solving for epsilon, Initial residual = 0, Final residual = 0, No Iterations 0
DILUPBiCGStab:  Solving for k, Initial residual = 0.0101756, Final residual = 0.000189842, No Iterations 1
ExecutionTime = 3.38 s  ClockTime = 3 s

Time = 66

DILUPBiCGStab:  Solving for Ux, Initial residual = 0.00783613, Final residual = 0.000519665, No Iterations 1
DILUPBiCGStab:  Solving for Uy, Initial residual = 0.014091, Final residual = 0.0013784, No Iterations 1
DILUPBiCGStab:  Solving for Uz, Initial residual = 0.0278296, Final residual = 0.00112909, No Iterations 1
DILUPBiCGStab:  Solving for e, Initial residual = 0.00738058, Final residual = 7.1084e-05, No Iterations 1
DICPCG:  Solving for p_rgh, Initial residual = 0.0643314, Final residual = 0.000489035, No Iterations 204
time step continuity errors : sum local = 13.2846, global = -0.031822, cumulative = -7.59836
DILUPBiCGStab:  Solving for epsilon, Initial residual = 0, Final residual = 0, No Iterations 0
DILUPBiCGStab:  Solving for k, Initial residual = 0.0101433, Final residual = 0.000189383, No Iterations 1
ExecutionTime = 3.44 s  ClockTime = 3 s

Time = 67

DILUPBiCGStab:  Solving for Ux, Initial residual = 0.00756184, Final residual = 0.000500188, No Iterations 1
DILUPBiCGStab:  Solving for Uy, Initial residual = 0.0139245, Final residual = 0.000208275, No Iterations 1
DILUPBiCGStab:  Solving for Uz, Initial residual = 0.0279557, Final residual = 0.00111312, No Iterations 1
DILUPBiCGStab:  Solving for e, Initial residual = 0.00723794, Final residual = 6.04848e-05, No Iterations 1
DICPCG:  Solving for p_rgh, Initial residual = 0.061316, Final residual = 0.000509521, No Iterations 204
time step continuity errors : sum local = 14.4072, global = -0.0152638, cumulative = -7.61362
DILUPBiCGStab:  Solving for epsilon, Initial residual = 0, Final residual = 0, No Iterations 0
DILUPBiCGStab:  Solving for k, Initial residual = 0.0101167, Final residual = 0.000189875, No Iterations 1
ExecutionTime = 3.51 s  ClockTime = 3 s

Time = 68

DILUPBiCGStab:  Solving for Ux, Initial residual = 0.00729324, Final residual = 0.000485098, No Iterations 1
DILUPBiCGStab:  Solving for Uy, Initial residual = 0.0135804, Final residual = 0.000203727, No Iterations 1
DILUPBiCGStab:  Solving for Uz, Initial residual = 0.0277718, Final residual = 0.00113814, No Iterations 1
DILUPBiCGStab:  Solving for e, Initial residual = 0.00710934, Final residual = 5.09592e-05, No Iterations 1
DICPCG:  Solving for p_rgh, Initial residual = 0.0608606, Final residual = 0.000601356, No Iterations 53
time step continuity errors : sum local = 17.1472, global = -2.71847, cumulative = -10.3321
DILUPBiCGStab:  Solving for epsilon, Initial residual = 0, Final residual = 0, No Iterations 0
DILUPBiCGStab:  Solving for k, Initial residual = 0.0100207, Final residual = 0.000190037, No Iterations 1
ExecutionTime = 3.54 s  ClockTime = 4 s

Time = 69

DILUPBiCGStab:  Solving for Ux, Initial residual = 0.00703004, Final residual = 0.000468909, No Iterations 1
DILUPBiCGStab:  Solving for Uy, Initial residual = 0.0130828, Final residual = 0.000200967, No Iterations 1
DILUPBiCGStab:  Solving for Uz, Initial residual = 0.0270761, Final residual = 0.00113596, No Iterations 1
DILUPBiCGStab:  Solving for e, Initial residual = 0.00699763, Final residual = 4.28001e-05, No Iterations 1
DICPCG:  Solving for p_rgh, Initial residual = 0.0623988, Final residual = 0.000619759, No Iterations 118
time step continuity errors : sum local = 16.7468, global = -2.67601, cumulative = -13.0081
DILUPBiCGStab:  Solving for epsilon, Initial residual = 0, Final residual = 0, No Iterations 0
DILUPBiCGStab:  Solving for k, Initial residual = 0.0098917, Final residual = 0.000189953, No Iterations 1
ExecutionTime = 3.59 s  ClockTime = 4 s

Time = 70

DILUPBiCGStab:  Solving for Ux, Initial residual = 0.00683249, Final residual = 0.000457796, No Iterations 1
DILUPBiCGStab:  Solving for Uy, Initial residual = 0.0127216, Final residual = 0.000199614, No Iterations 1
DILUPBiCGStab:  Solving for Uz, Initial residual = 0.0265523, Final residual = 0.00112958, No Iterations 1
DILUPBiCGStab:  Solving for e, Initial residual = 0.00689941, Final residual = 3.58502e-05, No Iterations 1
DICPCG:  Solving for p_rgh, Initial residual = 0.0616174, Final residual = 0.000505762, No Iterations 204
time step continuity errors : sum local = 13.5755, global = -0.004414, cumulative = -13.0125
DILUPBiCGStab:  Solving for epsilon, Initial residual = 0, Final residual = 0, No Iterations 0
DILUPBiCGStab:  Solving for k, Initial residual = 0.00979853, Final residual = 0.000190511, No Iterations 1
ExecutionTime = 3.65 s  ClockTime = 4 s

Time = 71

DILUPBiCGStab:  Solving for Ux, Initial residual = 0.00663616, Final residual = 0.000451737, No Iterations 1
DILUPBiCGStab:  Solving for Uy, Initial residual = 0.0123029, Final residual = 0.000198735, No Iterations 1
DILUPBiCGStab:  Solving for Uz, Initial residual = 0.0269903, Final residual = 0.00112252, No Iterations 1
DILUPBiCGStab:  Solving for e, Initial residual = 0.00680897, Final residual = 2.97968e-05, No Iterations 1
DICPCG:  Solving for p_rgh, Initial residual = 0.0589161, Final residual = 0.000567006, No Iterations 195
time step continuity errors : sum local = 15.5498, global = 0.218767, cumulative = -12.7937
DILUPBiCGStab:  Solving for epsilon, Initial residual = 0, Final residual = 0, No Iterations 0
DILUPBiCGStab:  Solving for k, Initial residual = 0.00966611, Final residual = 0.000189442, No Iterations 1
ExecutionTime = 3.71 s  ClockTime = 4 s

Time = 72

DILUPBiCGStab:  Solving for Ux, Initial residual = 0.00649623, Final residual = 0.000447942, No Iterations 1
DILUPBiCGStab:  Solving for Uy, Initial residual = 0.0122204, Final residual = 0.00020036, No Iterations 1
DILUPBiCGStab:  Solving for Uz, Initial residual = 0.0257815, Final residual = 0.00108451, No Iterations 1
DILUPBiCGStab:  Solving for e, Initial residual = 0.00673075, Final residual = 2.46468e-05, No Iterations 1
DICPCG:  Solving for p_rgh, Initial residual = 0.0580289, Final residual = 0.000543766, No Iterations 83
time step continuity errors : sum local = 15.1035, global = -2.00929, cumulative = -14.803
DILUPBiCGStab:  Solving for epsilon, Initial residual = 0, Final residual = 0, No Iterations 0
DILUPBiCGStab:  Solving for k, Initial residual = 0.00957036, Final residual = 0.000188926, No Iterations 1
ExecutionTime = 3.74 s  ClockTime = 4 s

Time = 73

DILUPBiCGStab:  Solving for Ux, Initial residual = 0.00631269, Final residual = 0.000440073, No Iterations 1
DILUPBiCGStab:  Solving for Uy, Initial residual = 0.0121124, Final residual = 0.00020109, No Iterations 1
DILUPBiCGStab:  Solving for Uz, Initial residual = 0.0256072, Final residual = 0.00107049, No Iterations 1
DILUPBiCGStab:  Solving for e, Initial residual = 0.0066652, Final residual = 2.04091e-05, No Iterations 1
DICPCG:  Solving for p_rgh, Initial residual = 0.0589772, Final residual = 0.000575434, No Iterations 130
time step continuity errors : sum local = 15.9458, global = -1.78443, cumulative = -16.5875
DILUPBiCGStab:  Solving for epsilon, Initial residual = 0, Final residual = 0, No Iterations 0
DILUPBiCGStab:  Solving for k, Initial residual = 0.00954418, Final residual = 0.000189663, No Iterations 1
ExecutionTime = 3.79 s  ClockTime = 4 s

Time = 74

DILUPBiCGStab:  Solving for Ux, Initial residual = 0.00618913, Final residual = 0.000434562, No Iterations 1
DILUPBiCGStab:  Solving for Uy, Initial residual = 0.0119967, Final residual = 0.000201196, No Iterations 1
DILUPBiCGStab:  Solving for Uz, Initial residual = 0.0252629, Final residual = 0.00105714, No Iterations 1
DILUPBiCGStab:  Solving for e, Initial residual = 0.00659986, Final residual = 1.73331e-05, No Iterations 1
DICPCG:  Solving for p_rgh, Initial residual = 0.0584643, Final residual = 0.000472717, No Iterations 205
time step continuity errors : sum local = 13.1087, global = -0.0039104, cumulative = -16.5914
DILUPBiCGStab:  Solving for epsilon, Initial residual = 0, Final residual = 0, No Iterations 0
DILUPBiCGStab:  Solving for k, Initial residual = 0.00945871, Final residual = 0.000188965, No Iterations 1
ExecutionTime = 3.85 s  ClockTime = 4 s

Time = 75

DILUPBiCGStab:  Solving for Ux, Initial residual = 0.00604077, Final residual = 0.0004307, No Iterations 1
DILUPBiCGStab:  Solving for Uy, Initial residual = 0.0116885, Final residual = 0.000199596, No Iterations 1
DILUPBiCGStab:  Solving for Uz, Initial residual = 0.0248234, Final residual = 0.00113225, No Iterations 1
DILUPBiCGStab:  Solving for e, Initial residual = 0.00651522, Final residual = 1.57495e-05, No Iterations 1
DICPCG:  Solving for p_rgh, Initial residual = 0.0561498, Final residual = 0.000390087, No Iterations 205
time step continuity errors : sum local = 11.0301, global = 0.0131272, cumulative = -16.5783
DILUPBiCGStab:  Solving for epsilon, Initial residual = 0, Final residual = 0, No Iterations 0
DILUPBiCGStab:  Solving for k, Initial residual = 0.00941808, Final residual = 0.00018886, No Iterations 1
ExecutionTime = 3.91 s  ClockTime = 4 s

Time = 76

DILUPBiCGStab:  Solving for Ux, Initial residual = 0.00592039, Final residual = 0.000426229, No Iterations 1
DILUPBiCGStab:  Solving for Uy, Initial residual = 0.0113938, Final residual = 0.00019698, No Iterations 1
DILUPBiCGStab:  Solving for Uz, Initial residual = 0.0251727, Final residual = 0.00121539, No Iterations 1
DILUPBiCGStab:  Solving for e, Initial residual = 0.00640694, Final residual = 1.45497e-05, No Iterations 1
DICPCG:  Solving for p_rgh, Initial residual = 0.0559024, Final residual = 0.000553979, No Iterations 60
time step continuity errors : sum local = 15.8975, global = -2.2286, cumulative = -18.8069
DILUPBiCGStab:  Solving for epsilon, Initial residual = 0, Final residual = 0, No Iterations 0
DILUPBiCGStab:  Solving for k, Initial residual = 0.00945321, Final residual = 0.000190013, No Iterations 1
ExecutionTime = 3.95 s  ClockTime = 4 s

Time = 77

DILUPBiCGStab:  Solving for Ux, Initial residual = 0.00577847, Final residual = 0.000417604, No Iterations 1
DILUPBiCGStab:  Solving for Uy, Initial residual = 0.0111182, Final residual = 0.000193435, No Iterations 1
DILUPBiCGStab:  Solving for Uz, Initial residual = 0.0264607, Final residual = 0.00126186, No Iterations 1
DILUPBiCGStab:  Solving for e, Initial residual = 0.00628021, Final residual = 1.32647e-05, No Iterations 1
DICPCG:  Solving for p_rgh, Initial residual = 0.0549368, Final residual = 0.000496427, No Iterations 205
time step continuity errors : sum local = 14.2283, global = 0.0513825, cumulative = -18.7555
DILUPBiCGStab:  Solving for epsilon, Initial residual = 0, Final residual = 0, No Iterations 0
DILUPBiCGStab:  Solving for k, Initial residual = 0.00945646, Final residual = 0.000190769, No Iterations 1
ExecutionTime = 4.01 s  ClockTime = 4 s

Time = 78

DILUPBiCGStab:  Solving for Ux, Initial residual = 0.00565323, Final residual = 0.000412129, No Iterations 1
DILUPBiCGStab:  Solving for Uy, Initial residual = 0.0108881, Final residual = 0.000189942, No Iterations 1
DILUPBiCGStab:  Solving for Uz, Initial residual = 0.0279543, Final residual = 0.00125398, No Iterations 1
DILUPBiCGStab:  Solving for e, Initial residual = 0.00613431, Final residual = 1.20116e-05, No Iterations 1
DICPCG:  Solving for p_rgh, Initial residual = 0.0544307, Final residual = 0.000445336, No Iterations 206
time step continuity errors : sum local = 12.8782, global = -0.0339661, cumulative = -18.7894
DILUPBiCGStab:  Solving for epsilon, Initial residual = 0, Final residual = 0, No Iterations 0
DILUPBiCGStab:  Solving for k, Initial residual = 0.00950398, Final residual = 0.00019125, No Iterations 1
ExecutionTime = 4.07 s  ClockTime = 4 s

Time = 79

DILUPBiCGStab:  Solving for Ux, Initial residual = 0.00556794, Final residual = 0.00040755, No Iterations 1
DILUPBiCGStab:  Solving for Uy, Initial residual = 0.0107813, Final residual = 0.000187531, No Iterations 1
DILUPBiCGStab:  Solving for Uz, Initial residual = 0.0289977, Final residual = 0.00119127, No Iterations 1
DILUPBiCGStab:  Solving for e, Initial residual = 0.00598152, Final residual = 1.08458e-05, No Iterations 1
DICPCG:  Solving for p_rgh, Initial residual = 0.0569468, Final residual = 0.000529855, No Iterations 80
time step continuity errors : sum local = 15.4595, global = -2.17818, cumulative = -20.9676
DILUPBiCGStab:  Solving for epsilon, Initial residual = 0, Final residual = 0, No Iterations 0
DILUPBiCGStab:  Solving for k, Initial residual = 0.00954121, Final residual = 0.000192021, No Iterations 1
ExecutionTime = 4.1 s  ClockTime = 4 s

Time = 80

DILUPBiCGStab:  Solving for Ux, Initial residual = 0.00547137, Final residual = 0.000399967, No Iterations 1
DILUPBiCGStab:  Solving for Uy, Initial residual = 0.0107046, Final residual = 0.000184954, No Iterations 1
DILUPBiCGStab:  Solving for Uz, Initial residual = 0.0300635, Final residual = 0.00116927, No Iterations 1
DILUPBiCGStab:  Solving for e, Initial residual = 0.00582604, Final residual = 9.63687e-06, No Iterations 1
DICPCG:  Solving for p_rgh, Initial residual = 0.0585405, Final residual = 0.000506893, No Iterations 208
time step continuity errors : sum local = 14.7782, global = -0.0145932, cumulative = -20.9822
DILUPBiCGStab:  Solving for epsilon, Initial residual = 0, Final residual = 0, No Iterations 0
DILUPBiCGStab:  Solving for k, Initial residual = 0.00959023, Final residual = 0.000193409, No Iterations 1
ExecutionTime = 4.16 s  ClockTime = 4 s

Time = 81

DILUPBiCGStab:  Solving for Ux, Initial residual = 0.00540572, Final residual = 0.000397022, No Iterations 1
DILUPBiCGStab:  Solving for Uy, Initial residual = 0.0105896, Final residual = 0.000181684, No Iterations 1
DILUPBiCGStab:  Solving for Uz, Initial residual = 0.0306148, Final residual = 0.00113444, No Iterations 1
DILUPBiCGStab:  Solving for e, Initial residual = 0.00566573, Final residual = 8.72571e-06, No Iterations 1
DICPCG:  Solving for p_rgh, Initial residual = 0.0569562, Final residual = 0.000424105, No Iterations 206
time step continuity errors : sum local = 12.4733, global = 0.00821062, cumulative = -20.974
DILUPBiCGStab:  Solving for epsilon, Initial residual = 0, Final residual = 0, No Iterations 0
DILUPBiCGStab:  Solving for k, Initial residual = 0.00963661, Final residual = 0.000194157, No Iterations 1
ExecutionTime = 4.23 s  ClockTime = 4 s

Time = 82

DILUPBiCGStab:  Solving for Ux, Initial residual = 0.00534619, Final residual = 0.000391924, No Iterations 1
DILUPBiCGStab:  Solving for Uy, Initial residual = 0.0105327, Final residual = 0.000179011, No Iterations 1
DILUPBiCGStab:  Solving for Uz, Initial residual = 0.0300514, Final residual = 0.00111338, No Iterations 1
DILUPBiCGStab:  Solving for e, Initial residual = 0.00551173, Final residual = 7.79985e-06, No Iterations 1
DICPCG:  Solving for p_rgh, Initial residual = 0.0554181, Final residual = 0.000525757, No Iterations 69
time step continuity errors : sum local = 15.6088, global = -1.65202, cumulative = -22.626
DILUPBiCGStab:  Solving for epsilon, Initial residual = 0, Final residual = 0, No Iterations 0
DILUPBiCGStab:  Solving for k, Initial residual = 0.00969582, Final residual = 0.000195237, No Iterations 1
ExecutionTime = 4.26 s  ClockTime = 4 s

Time = 83

DILUPBiCGStab:  Solving for Ux, Initial residual = 0.0052597, Final residual = 0.000384118, No Iterations 1
DILUPBiCGStab:  Solving for Uy, Initial residual = 0.0103912, Final residual = 0.000174758, No Iterations 1
DILUPBiCGStab:  Solving for Uz, Initial residual = 0.0302762, Final residual = 0.00111577, No Iterations 1
DILUPBiCGStab:  Solving for e, Initial residual = 0.00536823, Final residual = 7.20334e-06, No Iterations 1
DICPCG:  Solving for p_rgh, Initial residual = 0.0568743, Final residual = 0.000490358, No Iterations 205
time step continuity errors : sum local = 14.5019, global = -0.0112218, cumulative = -22.6372
DILUPBiCGStab:  Solving for epsilon, Initial residual = 0, Final residual = 0, No Iterations 0
DILUPBiCGStab:  Solving for k, Initial residual = 0.00971623, Final residual = 0.000196297, No Iterations 1
ExecutionTime = 4.33 s  ClockTime = 4 s

Time = 84

DILUPBiCGStab:  Solving for Ux, Initial residual = 0.0051893, Final residual = 0.000378425, No Iterations 1
DILUPBiCGStab:  Solving for Uy, Initial residual = 0.0102199, Final residual = 0.000169596, No Iterations 1
DILUPBiCGStab:  Solving for Uz, Initial residual = 0.031093, Final residual = 0.00118041, No Iterations 1
DILUPBiCGStab:  Solving for e, Initial residual = 0.00523295, Final residual = 6.90288e-06, No Iterations 1
DICPCG:  Solving for p_rgh, Initial residual = 0.0566048, Final residual = 0.000534553, No Iterations 70
time step continuity errors : sum local = 15.9545, global = -3.1344, cumulative = -25.7716
DILUPBiCGStab:  Solving for epsilon, Initial residual = 0, Final residual = 0, No Iterations 0
DILUPBiCGStab:  Solving for k, Initial residual = 0.00975563, Final residual = 0.000197881, No Iterations 1
ExecutionTime = 4.37 s  ClockTime = 4 s

Time = 85

DILUPBiCGStab:  Solving for Ux, Initial residual = 0.0051088, Final residual = 0.000369152, No Iterations 1
DILUPBiCGStab:  Solving for Uy, Initial residual = 0.0100509, Final residual = 0.000163772, No Iterations 1
DILUPBiCGStab:  Solving for Uz, Initial residual = 0.0318288, Final residual = 0.0012168, No Iterations 1
DILUPBiCGStab:  Solving for e, Initial residual = 0.00512423, Final residual = 7.15092e-06, No Iterations 1
DICPCG:  Solving for p_rgh, Initial residual = 0.0578361, Final residual = 0.000487932, No Iterations 206
time step continuity errors : sum local = 14.5652, global = -0.0153127, cumulative = -25.787
DILUPBiCGStab:  Solving for epsilon, Initial residual = 0, Final residual = 0, No Iterations 0
DILUPBiCGStab:  Solving for k, Initial residual = 0.00979008, Final residual = 0.000199807, No Iterations 1
ExecutionTime = 4.43 s  ClockTime = 4 s

Time = 86

DILUPBiCGStab:  Solving for Ux, Initial residual = 0.00506936, Final residual = 0.000365665, No Iterations 1
DILUPBiCGStab:  Solving for Uy, Initial residual = 0.00982509, Final residual = 0.0001566, No Iterations 1
DILUPBiCGStab:  Solving for Uz, Initial residual = 0.0317462, Final residual = 0.00128898, No Iterations 1
DILUPBiCGStab:  Solving for e, Initial residual = 0.0050138, Final residual = 7.33289e-06, No Iterations 1
DICPCG:  Solving for p_rgh, Initial residual = 0.060117, Final residual = 0.000498424, No Iterations 208
time step continuity errors : sum local = 15.1508, global = 0.0213931, cumulative = -25.7656
DILUPBiCGStab:  Solving for epsilon, Initial residual = 0, Final residual = 0, No Iterations 0
DILUPBiCGStab:  Solving for k, Initial residual = 0.00981954, Final residual = 0.00020245, No Iterations 1
ExecutionTime = 4.49 s  ClockTime = 4 s

Time = 87

DILUPBiCGStab:  Solving for Ux, Initial residual = 0.00505492, Final residual = 0.00035996, No Iterations 1
DILUPBiCGStab:  Solving for Uy, Initial residual = 0.00965363, Final residual = 0.000957884, No Iterations 1
DILUPBiCGStab:  Solving for Uz, Initial residual = 0.0335653, Final residual = 0.0014145, No Iterations 1
DILUPBiCGStab:  Solving for e, Initial residual = 0.00491095, Final residual = 7.85646e-06, No Iterations 1
DICPCG:  Solving for p_rgh, Initial residual = 0.0572039, Final residual = 0.000556868, No Iterations 72
time step continuity errors : sum local = 17.0734, global = -2.03348, cumulative = -27.799
DILUPBiCGStab:  Solving for epsilon, Initial residual = 0, Final residual = 0, No Iterations 0
DILUPBiCGStab:  Solving for k, Initial residual = 0.00983353, Final residual = 0.000202029, No Iterations 1
ExecutionTime = 4.53 s  ClockTime = 5 s

Time = 88

DILUPBiCGStab:  Solving for Ux, Initial residual = 0.00497897, Final residual = 0.000348357, No Iterations 1
DILUPBiCGStab:  Solving for Uy, Initial residual = 0.00946985, Final residual = 0.000147884, No Iterations 1
DILUPBiCGStab:  Solving for Uz, Initial residual = 0.0353129, Final residual = 0.00144002, No Iterations 1
DILUPBiCGStab:  Solving for e, Initial residual = 0.00480824, Final residual = 8.45883e-06, No Iterations 1
DICPCG:  Solving for p_rgh, Initial residual = 0.0582752, Final residual = 0.000565647, No Iterations 84
time step continuity errors : sum local = 17.3511, global = -3.49544, cumulative = -31.2945
DILUPBiCGStab:  Solving for epsilon, Initial residual = 0, Final residual = 0, No Iterations 0
DILUPBiCGStab:  Solving for k, Initial residual = 0.00985442, Final residual = 0.000203453, No Iterations 1
ExecutionTime = 4.56 s  ClockTime = 5 s

Time = 89

DILUPBiCGStab:  Solving for Ux, Initial residual = 0.004907, Final residual = 0.000334089, No Iterations 1
[...]
DICPCG:  Solving for p_rgh, Initial residual = 0.0693391, Final residual = 0.000654858, No Iterations 199
time step continuity errors : sum local = 62.8387, global = 0.178254, cumulative = -1011.79
DILUPBiCGStab:  Solving for epsilon, Initial residual = 0, Final residual = 0, No Iterations 0
DILUPBiCGStab:  Solving for k, Initial residual = 0.00868262, Final residual = 0.000272487, No Iterations 1
ExecutionTime = 43.94 s  ClockTime = 45 s

Time = 979

DILUPBiCGStab:  Solving for Ux, Initial residual = 0.0135048, Final residual = 0.000286179, No Iterations 1
DILUPBiCGStab:  Solving for Uy, Initial residual = 0.0123619, Final residual = 0.000376211, No Iterations 1
DILUPBiCGStab:  Solving for Uz, Initial residual = 0.0139977, Final residual = 0.000495873, No Iterations 1
DILUPBiCGStab:  Solving for e, Initial residual = 0.00700181, Final residual = 0.000186783, No Iterations 1
DICPCG:  Solving for p_rgh, Initial residual = 0.0701312, Final residual = 0.000691616, No Iterations 40
time step continuity errors : sum local = 63.4216, global = 3.2022, cumulative = -1008.59
DILUPBiCGStab:  Solving for epsilon, Initial residual = 0, Final residual = 0, No Iterations 0
DILUPBiCGStab:  Solving for k, Initial residual = 0.0087021, Final residual = 0.000261164, No Iterations 1
ExecutionTime = 43.97 s  ClockTime = 45 s

Time = 980

DILUPBiCGStab:  Solving for Ux, Initial residual = 0.0132179, Final residual = 0.00027133, No Iterations 1
DILUPBiCGStab:  Solving for Uy, Initial residual = 0.0118441, Final residual = 0.000297524, No Iterations 1
DILUPBiCGStab:  Solving for Uz, Initial residual = 0.014214, Final residual = 0.000511761, No Iterations 1
DILUPBiCGStab:  Solving for e, Initial residual = 0.00671781, Final residual = 0.000177026, No Iterations 1
DICPCG:  Solving for p_rgh, Initial residual = 0.0625255, Final residual = 0.000561506, No Iterations 47
time step continuity errors : sum local = 53.1824, global = -0.617349, cumulative = -1009.2
DILUPBiCGStab:  Solving for epsilon, Initial residual = 0, Final residual = 0, No Iterations 0
DILUPBiCGStab:  Solving for k, Initial residual = 0.00858437, Final residual = 0.000271667, No Iterations 1
ExecutionTime = 44 s  ClockTime = 45 s

Time = 981

DILUPBiCGStab:  Solving for Ux, Initial residual = 0.0132742, Final residual = 0.000264786, No Iterations 1
DILUPBiCGStab:  Solving for Uy, Initial residual = 0.0120257, Final residual = 0.000264423, No Iterations 1
DILUPBiCGStab:  Solving for Uz, Initial residual = 0.0145178, Final residual = 0.000538781, No Iterations 1
DILUPBiCGStab:  Solving for e, Initial residual = 0.00676735, Final residual = 0.00018213, No Iterations 1
DICPCG:  Solving for p_rgh, Initial residual = 0.0546035, Final residual = 0.000528229, No Iterations 150
time step continuity errors : sum local = 52.6131, global = 8.39156, cumulative = -1000.81
DILUPBiCGStab:  Solving for epsilon, Initial residual = 0, Final residual = 0, No Iterations 0
DILUPBiCGStab:  Solving for k, Initial residual = 0.00866711, Final residual = 0.000280842, No Iterations 1
ExecutionTime = 44.06 s  ClockTime = 45 s

Time = 982

DILUPBiCGStab:  Solving for Ux, Initial residual = 0.0141832, Final residual = 0.000258405, No Iterations 1
DILUPBiCGStab:  Solving for Uy, Initial residual = 0.0128917, Final residual = 0.000257261, No Iterations 1
DILUPBiCGStab:  Solving for Uz, Initial residual = 0.0145149, Final residual = 0.000580209, No Iterations 1
DILUPBiCGStab:  Solving for e, Initial residual = 0.00671534, Final residual = 0.000189751, No Iterations 1
DICPCG:  Solving for p_rgh, Initial residual = 0.0520007, Final residual = 0.000509745, No Iterations 201
time step continuity errors : sum local = 49.1248, global = 0.0463587, cumulative = -1000.77
DILUPBiCGStab:  Solving for epsilon, Initial residual = 0, Final residual = 0, No Iterations 0
DILUPBiCGStab:  Solving for k, Initial residual = 0.00897827, Final residual = 0.000286922, No Iterations 1
ExecutionTime = 44.13 s  ClockTime = 45 s

Time = 983

DILUPBiCGStab:  Solving for Ux, Initial residual = 0.0153095, Final residual = 0.000248381, No Iterations 1
DILUPBiCGStab:  Solving for Uy, Initial residual = 0.0132353, Final residual = 0.000228675, No Iterations 1
DILUPBiCGStab:  Solving for Uz, Initial residual = 0.0152431, Final residual = 0.000646099, No Iterations 1
DILUPBiCGStab:  Solving for e, Initial residual = 0.00660541, Final residual = 0.000196045, No Iterations 1
DICPCG:  Solving for p_rgh, Initial residual = 0.0546746, Final residual = 0.000381615, No Iterations 202
time step continuity errors : sum local = 35.148, global = -0.026903, cumulative = -1000.79
DILUPBiCGStab:  Solving for epsilon, Initial residual = 0, Final residual = 0, No Iterations 0
DILUPBiCGStab:  Solving for k, Initial residual = 0.00952192, Final residual = 0.000293917, No Iterations 1
ExecutionTime = 44.19 s  ClockTime = 45 s

Time = 984

DILUPBiCGStab:  Solving for Ux, Initial residual = 0.015844, Final residual = 0.000224437, No Iterations 1
DILUPBiCGStab:  Solving for Uy, Initial residual = 0.0126961, Final residual = 0.00112944, No Iterations 1
DILUPBiCGStab:  Solving for Uz, Initial residual = 0.0156508, Final residual = 0.000695306, No Iterations 1
DILUPBiCGStab:  Solving for e, Initial residual = 0.00665328, Final residual = 0.000205988, No Iterations 1
DICPCG:  Solving for p_rgh, Initial residual = 0.0691952, Final residual = 0.000686812, No Iterations 180
time step continuity errors : sum local = 61.1308, global = -7.55289, cumulative = -1008.35
DILUPBiCGStab:  Solving for epsilon, Initial residual = 0, Final residual = 0, No Iterations 0
DILUPBiCGStab:  Solving for k, Initial residual = 0.0101359, Final residual = 0.000301344, No Iterations 1
ExecutionTime = 44.25 s  ClockTime = 45 s

Time = 985

DILUPBiCGStab:  Solving for Ux, Initial residual = 0.0158131, Final residual = 0.0014171, No Iterations 1
DILUPBiCGStab:  Solving for Uy, Initial residual = 0.0121672, Final residual = 0.000987277, No Iterations 1
DILUPBiCGStab:  Solving for Uz, Initial residual = 0.0164585, Final residual = 0.000761707, No Iterations 1
DILUPBiCGStab:  Solving for e, Initial residual = 0.00687425, Final residual = 0.00020393, No Iterations 1
DICPCG:  Solving for p_rgh, Initial residual = 0.0900154, Final residual = 0.000688816, No Iterations 202
time step continuity errors : sum local = 63.9422, global = -0.012316, cumulative = -1008.36
DILUPBiCGStab:  Solving for epsilon, Initial residual = 0, Final residual = 0, No Iterations 0
DILUPBiCGStab:  Solving for k, Initial residual = 0.0110376, Final residual = 0.000344829, No Iterations 1
ExecutionTime = 44.31 s  ClockTime = 45 s

Time = 986

DILUPBiCGStab:  Solving for Ux, Initial residual = 0.0163384, Final residual = 0.00117654, No Iterations 1
DILUPBiCGStab:  Solving for Uy, Initial residual = 0.0122715, Final residual = 0.000859736, No Iterations 1
DILUPBiCGStab:  Solving for Uz, Initial residual = 0.0168106, Final residual = 0.000774357, No Iterations 1
DILUPBiCGStab:  Solving for e, Initial residual = 0.00717559, Final residual = 0.00017967, No Iterations 1
DICPCG:  Solving for p_rgh, Initial residual = 0.0939666, Final residual = 0.000904962, No Iterations 121
time step continuity errors : sum local = 95.1139, global = 8.16869, cumulative = -1000.19
DILUPBiCGStab:  Solving for epsilon, Initial residual = 0, Final residual = 0, No Iterations 0
DILUPBiCGStab:  Solving for k, Initial residual = 0.0123305, Final residual = 0.000426494, No Iterations 1
ExecutionTime = 44.36 s  ClockTime = 45 s

Time = 987

DILUPBiCGStab:  Solving for Ux, Initial residual = 0.0146005, Final residual = 0.000956861, No Iterations 1
DILUPBiCGStab:  Solving for Uy, Initial residual = 0.0131974, Final residual = 0.000853807, No Iterations 1
DILUPBiCGStab:  Solving for Uz, Initial residual = 0.0163615, Final residual = 0.000672564, No Iterations 1
DILUPBiCGStab:  Solving for e, Initial residual = 0.00713195, Final residual = 0.000164944, No Iterations 1
DICPCG:  Solving for p_rgh, Initial residual = 0.109228, Final residual = 0.000846125, No Iterations 201
time step continuity errors : sum local = 81.7989, global = 0.160267, cumulative = -1000.03
DILUPBiCGStab:  Solving for epsilon, Initial residual = 0, Final residual = 0, No Iterations 0
DILUPBiCGStab:  Solving for k, Initial residual = 0.0136023, Final residual = 0.000595215, No Iterations 1
ExecutionTime = 44.42 s  ClockTime = 45 s

Time = 988

DILUPBiCGStab:  Solving for Ux, Initial residual = 0.0129869, Final residual = 0.000738254, No Iterations 1
DILUPBiCGStab:  Solving for Uy, Initial residual = 0.014075, Final residual = 0.000939546, No Iterations 1
DILUPBiCGStab:  Solving for Uz, Initial residual = 0.0172401, Final residual = 0.000792739, No Iterations 1
DILUPBiCGStab:  Solving for e, Initial residual = 0.00723625, Final residual = 0.000179037, No Iterations 1
DICPCG:  Solving for p_rgh, Initial residual = 0.100563, Final residual = 0.00100234, No Iterations 34
time step continuity errors : sum local = 90.0665, global = 23.5221, cumulative = -976.507
DILUPBiCGStab:  Solving for epsilon, Initial residual = 0, Final residual = 0, No Iterations 0
DILUPBiCGStab:  Solving for k, Initial residual = 0.01261, Final residual = 0.000448796, No Iterations 1
ExecutionTime = 44.45 s  ClockTime = 45 s

Time = 989

DILUPBiCGStab:  Solving for Ux, Initial residual = 0.0120283, Final residual = 0.000717926, No Iterations 1
DILUPBiCGStab:  Solving for Uy, Initial residual = 0.0140619, Final residual = 0.000949142, No Iterations 1
DILUPBiCGStab:  Solving for Uz, Initial residual = 0.0152097, Final residual = 0.00062022, No Iterations 1
DILUPBiCGStab:  Solving for e, Initial residual = 0.00735115, Final residual = 0.000186556, No Iterations 1
DICPCG:  Solving for p_rgh, Initial residual = 0.0947774, Final residual = 0.000789246, No Iterations 200
time step continuity errors : sum local = 69.5265, global = -0.0376809, cumulative = -976.545
DILUPBiCGStab:  Solving for epsilon, Initial residual = 0, Final residual = 0, No Iterations 0
DILUPBiCGStab:  Solving for k, Initial residual = 0.0135742, Final residual = 0.000600996, No Iterations 1
ExecutionTime = 44.51 s  ClockTime = 45 s

Time = 990

DILUPBiCGStab:  Solving for Ux, Initial residual = 0.0126833, Final residual = 0.000883731, No Iterations 1
DILUPBiCGStab:  Solving for Uy, Initial residual = 0.0135302, Final residual = 0.00089706, No Iterations 1
DILUPBiCGStab:  Solving for Uz, Initial residual = 0.0162416, Final residual = 0.000767444, No Iterations 1
DILUPBiCGStab:  Solving for e, Initial residual = 0.00770984, Final residual = 0.000211429, No Iterations 1
DICPCG:  Solving for p_rgh, Initial residual = 0.100038, Final residual = 0.000922567, No Iterations 202
time step continuity errors : sum local = 77.9037, global = 0.00528846, cumulative = -976.539
DILUPBiCGStab:  Solving for epsilon, Initial residual = 0, Final residual = 0, No Iterations 0
DILUPBiCGStab:  Solving for k, Initial residual = 0.013595, Final residual = 0.00061024, No Iterations 1
ExecutionTime = 44.57 s  ClockTime = 45 s

Time = 991

DILUPBiCGStab:  Solving for Ux, Initial residual = 0.0125136, Final residual = 0.000869834, No Iterations 1
DILUPBiCGStab:  Solving for Uy, Initial residual = 0.0128277, Final residual = 0.000753868, No Iterations 1
DILUPBiCGStab:  Solving for Uz, Initial residual = 0.015484, Final residual = 0.000710215, No Iterations 1
DILUPBiCGStab:  Solving for e, Initial residual = 0.00789302, Final residual = 0.000222849, No Iterations 1
DICPCG:  Solving for p_rgh, Initial residual = 0.0927962, Final residual = 0.00091273, No Iterations 112
time step continuity errors : sum local = 74.8215, global = -5.57581, cumulative = -982.115
DILUPBiCGStab:  Solving for epsilon, Initial residual = 0, Final residual = 0, No Iterations 0
DILUPBiCGStab:  Solving for k, Initial residual = 0.0133969, Final residual = 0.000646535, No Iterations 1
ExecutionTime = 44.62 s  ClockTime = 45 s

Time = 992

DILUPBiCGStab:  Solving for Ux, Initial residual = 0.011306, Final residual = 0.000957659, No Iterations 1
DILUPBiCGStab:  Solving for Uy, Initial residual = 0.0126422, Final residual = 0.000819726, No Iterations 1
DILUPBiCGStab:  Solving for Uz, Initial residual = 0.0152226, Final residual = 0.000739189, No Iterations 1
DILUPBiCGStab:  Solving for e, Initial residual = 0.00806685, Final residual = 0.00023277, No Iterations 1
DICPCG:  Solving for p_rgh, Initial residual = 0.0859737, Final residual = 0.000724836, No Iterations 203
time step continuity errors : sum local = 59.379, global = -0.00419731, cumulative = -982.119
DILUPBiCGStab:  Solving for epsilon, Initial residual = 0, Final residual = 0, No Iterations 0
DILUPBiCGStab:  Solving for k, Initial residual = 0.0134542, Final residual = 0.000671284, No Iterations 1
ExecutionTime = 44.68 s  ClockTime = 45 s

Time = 993

DILUPBiCGStab:  Solving for Ux, Initial residual = 0.0100324, Final residual = 0.000788738, No Iterations 1
DILUPBiCGStab:  Solving for Uy, Initial residual = 0.0122894, Final residual = 0.000785709, No Iterations 1
DILUPBiCGStab:  Solving for Uz, Initial residual = 0.0151325, Final residual = 0.000630588, No Iterations 1
DILUPBiCGStab:  Solving for e, Initial residual = 0.00848417, Final residual = 0.000250569, No Iterations 1
DICPCG:  Solving for p_rgh, Initial residual = 0.0810151, Final residual = 0.00079663, No Iterations 142
time step continuity errors : sum local = 66.4253, global = -8.64839, cumulative = -990.768
DILUPBiCGStab:  Solving for epsilon, Initial residual = 0, Final residual = 0, No Iterations 0
DILUPBiCGStab:  Solving for k, Initial residual = 0.013816, Final residual = 0.000660832, No Iterations 1
ExecutionTime = 44.73 s  ClockTime = 45 s

Time = 994

DILUPBiCGStab:  Solving for Ux, Initial residual = 0.010072, Final residual = 0.000706736, No Iterations 1
DILUPBiCGStab:  Solving for Uy, Initial residual = 0.0120354, Final residual = 0.000843469, No Iterations 1
DILUPBiCGStab:  Solving for Uz, Initial residual = 0.0155864, Final residual = 0.000646264, No Iterations 1
DILUPBiCGStab:  Solving for e, Initial residual = 0.00886219, Final residual = 0.000249454, No Iterations 1
DICPCG:  Solving for p_rgh, Initial residual = 0.0761224, Final residual = 0.000744913, No Iterations 75
time step continuity errors : sum local = 62.1813, global = 5.10545, cumulative = -985.662
DILUPBiCGStab:  Solving for epsilon, Initial residual = 0, Final residual = 0, No Iterations 0
DILUPBiCGStab:  Solving for k, Initial residual = 0.0142777, Final residual = 0.000653776, No Iterations 1
ExecutionTime = 44.76 s  ClockTime = 45 s

Time = 995

DILUPBiCGStab:  Solving for Ux, Initial residual = 0.010186, Final residual = 0.000695864, No Iterations 1
DILUPBiCGStab:  Solving for Uy, Initial residual = 0.0113177, Final residual = 0.000875925, No Iterations 1
DILUPBiCGStab:  Solving for Uz, Initial residual = 0.0155969, Final residual = 0.000623742, No Iterations 1
DILUPBiCGStab:  Solving for e, Initial residual = 0.00904407, Final residual = 0.000240143, No Iterations 1
DICPCG:  Solving for p_rgh, Initial residual = 0.0750791, Final residual = 0.000573715, No Iterations 203
time step continuity errors : sum local = 47.5764, global = -0.0307118, cumulative = -985.693
DILUPBiCGStab:  Solving for epsilon, Initial residual = 0, Final residual = 0, No Iterations 0
DILUPBiCGStab:  Solving for k, Initial residual = 0.0147168, Final residual = 0.000640146, No Iterations 1
ExecutionTime = 44.82 s  ClockTime = 45 s

Time = 996

DILUPBiCGStab:  Solving for Ux, Initial residual = 0.010277, Final residual = 0.000730533, No Iterations 1
DILUPBiCGStab:  Solving for Uy, Initial residual = 0.010566, Final residual = 0.000917241, No Iterations 1
DILUPBiCGStab:  Solving for Uz, Initial residual = 0.0159534, Final residual = 0.000637279, No Iterations 1
DILUPBiCGStab:  Solving for e, Initial residual = 0.00920505, Final residual = 0.000230987, No Iterations 1
DICPCG:  Solving for p_rgh, Initial residual = 0.0794428, Final residual = 0.000691081, No Iterations 203
time step continuity errors : sum local = 56.3607, global = -0.0360292, cumulative = -985.729
DILUPBiCGStab:  Solving for epsilon, Initial residual = 0, Final residual = 0, No Iterations 0
DILUPBiCGStab:  Solving for k, Initial residual = 0.0149692, Final residual = 0.000629185, No Iterations 1
ExecutionTime = 44.88 s  ClockTime = 46 s

Time = 997

DILUPBiCGStab:  Solving for Ux, Initial residual = 0.0101331, Final residual = 0.00070908, No Iterations 1
DILUPBiCGStab:  Solving for Uy, Initial residual = 0.0105679, Final residual = 0.000973296, No Iterations 1
DILUPBiCGStab:  Solving for Uz, Initial residual = 0.0162119, Final residual = 0.000639651, No Iterations 1
DILUPBiCGStab:  Solving for e, Initial residual = 0.00935061, Final residual = 0.000221031, No Iterations 1
DICPCG:  Solving for p_rgh, Initial residual = 0.0828036, Final residual = 0.000812657, No Iterations 111
time step continuity errors : sum local = 65.5412, global = 7.89187, cumulative = -977.837
DILUPBiCGStab:  Solving for epsilon, Initial residual = 0, Final residual = 0, No Iterations 0
DILUPBiCGStab:  Solving for k, Initial residual = 0.0150195, Final residual = 0.00063452, No Iterations 1
ExecutionTime = 44.93 s  ClockTime = 46 s

Time = 998

DILUPBiCGStab:  Solving for Ux, Initial residual = 0.0097937, Final residual = 0.000616318, No Iterations 1
DILUPBiCGStab:  Solving for Uy, Initial residual = 0.0109542, Final residual = 0.00100834, No Iterations 1
DILUPBiCGStab:  Solving for Uz, Initial residual = 0.0160602, Final residual = 0.000634555, No Iterations 1
DILUPBiCGStab:  Solving for e, Initial residual = 0.00956571, Final residual = 0.000209883, No Iterations 1
DICPCG:  Solving for p_rgh, Initial residual = 0.0826952, Final residual = 0.000759957, No Iterations 35
time step continuity errors : sum local = 61.7367, global = 6.43644, cumulative = -971.401
DILUPBiCGStab:  Solving for epsilon, Initial residual = 0, Final residual = 0, No Iterations 0
DILUPBiCGStab:  Solving for k, Initial residual = 0.0149398, Final residual = 0.000633759, No Iterations 1
ExecutionTime = 44.95 s  ClockTime = 46 s

Time = 999

DILUPBiCGStab:  Solving for Ux, Initial residual = 0.00954334, Final residual = 0.000530478, No Iterations 1
DILUPBiCGStab:  Solving for Uy, Initial residual = 0.0112633, Final residual = 0.000979379, No Iterations 1
DILUPBiCGStab:  Solving for Uz, Initial residual = 0.016157, Final residual = 0.000641042, No Iterations 1
DILUPBiCGStab:  Solving for e, Initial residual = 0.00983302, Final residual = 0.000198392, No Iterations 1
DICPCG:  Solving for p_rgh, Initial residual = 0.0802789, Final residual = 0.000799163, No Iterations 41
time step continuity errors : sum local = 65.6026, global = 19.6136, cumulative = -951.787
DILUPBiCGStab:  Solving for epsilon, Initial residual = 0, Final residual = 0, No Iterations 0
DILUPBiCGStab:  Solving for k, Initial residual = 0.0146556, Final residual = 0.00064326, No Iterations 1
ExecutionTime = 44.98 s  ClockTime = 46 s

Time = 1000

DILUPBiCGStab:  Solving for Ux, Initial residual = 0.0093756, Final residual = 0.00049308, No Iterations 1
DILUPBiCGStab:  Solving for Uy, Initial residual = 0.0111723, Final residual = 0.000908472, No Iterations 1
DILUPBiCGStab:  Solving for Uz, Initial residual = 0.0161126, Final residual = 0.00063401, No Iterations 1
DILUPBiCGStab:  Solving for e, Initial residual = 0.010048, Final residual = 0.00018936, No Iterations 1
DICPCG:  Solving for p_rgh, Initial residual = 0.0801187, Final residual = 0.000786543, No Iterations 201
time step continuity errors : sum local = 65.2999, global = -0.120305, cumulative = -951.907
DILUPBiCGStab:  Solving for epsilon, Initial residual = 0, Final residual = 0, No Iterations 0
DILUPBiCGStab:  Solving for k, Initial residual = 0.0144514, Final residual = 0.000654279, No Iterations 1
ExecutionTime = 45.17 s  ClockTime = 46 s

End

