/*---------------------------------------------------------------------------*\
  =========                 |
  \\      /  F ield         | OpenFOAM: The Open Source CFD Toolbox
   \\    /   O peration     | Website:  https://openfoam.org
    \\  /    A nd           | Version:  8
     \\/     M anipulation  |
\*---------------------------------------------------------------------------*/
Build  : 8-1c9b5879390b
Exec   : buoyantSimpleFoam
Date   : Jan 27 2025
Time   : 14:27:05
Host   : "658dd9edf29b"
PID    : 664
I/O    : uncollated
Case   : /home/openfoam/run/180bentPipe/Re100/q-500
nProcs : 1
sigFpe : Enabling floating point exception trapping (FOAM_SIGFPE).
fileModificationChecking : Monitoring run-time modified files using timeStampMaster (fileModificationSkew 10)
allowSystemOperations : Allowing user-supplied system call operations

// * * * * * * * * * * * * * * * * * * * * * * * * * * * * * * * * * * * * * //
Create time

Create mesh for time = 0


SIMPLE: Convergence criteria found
        p_rgh: tolerance 0.01
        U: tolerance 0.0001
        e: tolerance 0.01
        "(k|epsilon|omega)": tolerance 0.001

Reading thermophysical properties

Selecting thermodynamics package 
{
    type            heRhoThermo;
    mixture         pureMixture;
    transport       const;
    thermo          eConst;
    equationOfState Boussinesq;
    specie          specie;
    energy          sensibleInternalEnergy;
}

Reading field U

Reading/calculating face flux field phi

Creating turbulence model

Selecting turbulence model type RAS
Selecting RAS turbulence model kEpsilon
RAS
{
    RASModel        kEpsilon;
    turbulence      on;
    printCoeffs     on;
    Cmu             0.09;
    C1              1.44;
    C2              1.92;
    C3              0;
    sigmak          1;
    sigmaEps        1.3;
}

Creating thermophysical transport model

Selecting thermophysical transport type RAS
Selecting default RAS thermophysical transport model eddyDiffusivity

Reading g

Reading hRef
Calculating field g.h


Reading pRef
Reading field p_rgh

--> FOAM Warning : 
    From function const Foam::HashTable<Foam::List<int>, Foam::word>& Foam::polyBoundaryMesh::groupPatchIDs() const
    in file meshes/polyMesh/polyBoundaryMesh/polyBoundaryMesh.C at line 473
    Removing patchGroup 'wall' which clashes with patch 0 of the same name.
No MRF models present

Radiation model not active: radiationProperties not found
Selecting radiationModel none
No finite volume options present

Starting time loop

Time = 1

DILUPBiCGStab:  Solving for Ux, Initial residual = 1, Final residual = 0.0205874, No Iterations 1
DILUPBiCGStab:  Solving for Uy, Initial residual = 1, Final residual = 0.00960663, No Iterations 1
DILUPBiCGStab:  Solving for Uz, Initial residual = 0.999996, Final residual = 0.0612784, No Iterations 1
DILUPBiCGStab:  Solving for e, Initial residual = 1, Final residual = 0.000488734, No Iterations 1
DICPCG:  Solving for p_rgh, Initial residual = 0.965721, Final residual = 0.00690732, No Iterations 195
time step continuity errors : sum local = 19.6603, global = 0.0350713, cumulative = 0.0350713
DILUPBiCGStab:  Solving for epsilon, Initial residual = 0, Final residual = 0, No Iterations 0
DILUPBiCGStab:  Solving for k, Initial residual = 1, Final residual = 0.0355113, No Iterations 1
ExecutionTime = 0.25 s  ClockTime = 0 s

Time = 2

DILUPBiCGStab:  Solving for Ux, Initial residual = 0.941564, Final residual = 0.0586072, No Iterations 1
DILUPBiCGStab:  Solving for Uy, Initial residual = 0.989656, Final residual = 0.0172179, No Iterations 1
DILUPBiCGStab:  Solving for Uz, Initial residual = 0.648221, Final residual = 0.0233295, No Iterations 1
DILUPBiCGStab:  Solving for e, Initial residual = 0.167553, Final residual = 0.00159361, No Iterations 1
DICPCG:  Solving for p_rgh, Initial residual = 0.197491, Final residual = 0.00178402, No Iterations 176
time step continuity errors : sum local = 327.847, global = -4.398, cumulative = -4.36293
DILUPBiCGStab:  Solving for epsilon, Initial residual = 0, Final residual = 0, No Iterations 0
DILUPBiCGStab:  Solving for k, Initial residual = 0.986806, Final residual = 0.0126171, No Iterations 1
ExecutionTime = 0.31 s  ClockTime = 0 s

Time = 3

DILUPBiCGStab:  Solving for Ux, Initial residual = 0.232547, Final residual = 0.00856244, No Iterations 1
DILUPBiCGStab:  Solving for Uy, Initial residual = 0.106634, Final residual = 0.00296383, No Iterations 1
DILUPBiCGStab:  Solving for Uz, Initial residual = 0.499516, Final residual = 0.014971, No Iterations 1
DILUPBiCGStab:  Solving for e, Initial residual = 0.158079, Final residual = 0.00357537, No Iterations 1
DICPCG:  Solving for p_rgh, Initial residual = 0.919878, Final residual = 0.00905628, No Iterations 204
time step continuity errors : sum local = 171.861, global = 0.0310066, cumulative = -4.33192
DILUPBiCGStab:  Solving for epsilon, Initial residual = 0, Final residual = 0, No Iterations 0
DILUPBiCGStab:  Solving for k, Initial residual = 0.238119, Final residual = 0.011677, No Iterations 1
ExecutionTime = 0.37 s  ClockTime = 0 s

Time = 4

DILUPBiCGStab:  Solving for Ux, Initial residual = 0.234594, Final residual = 0.0107397, No Iterations 1
DILUPBiCGStab:  Solving for Uy, Initial residual = 0.202534, Final residual = 0.0109621, No Iterations 1
DILUPBiCGStab:  Solving for Uz, Initial residual = 0.510707, Final residual = 0.00793056, No Iterations 1
DILUPBiCGStab:  Solving for e, Initial residual = 0.118516, Final residual = 0.00207453, No Iterations 1
DICPCG:  Solving for p_rgh, Initial residual = 0.721574, Final residual = 0.00534858, No Iterations 218
time step continuity errors : sum local = 90.0005, global = -0.00472213, cumulative = -4.33664
DILUPBiCGStab:  Solving for epsilon, Initial residual = 0, Final residual = 0, No Iterations 0
DILUPBiCGStab:  Solving for k, Initial residual = 0.17646, Final residual = 0.0116983, No Iterations 1
ExecutionTime = 0.43 s  ClockTime = 0 s

Time = 5

DILUPBiCGStab:  Solving for Ux, Initial residual = 0.334809, Final residual = 0.0280493, No Iterations 1
DILUPBiCGStab:  Solving for Uy, Initial residual = 0.430884, Final residual = 0.0402141, No Iterations 1
DILUPBiCGStab:  Solving for Uz, Initial residual = 0.404764, Final residual = 0.0159221, No Iterations 1
DILUPBiCGStab:  Solving for e, Initial residual = 0.099329, Final residual = 0.00137286, No Iterations 1
DICPCG:  Solving for p_rgh, Initial residual = 0.634304, Final residual = 0.00566161, No Iterations 214
time step continuity errors : sum local = 186.259, global = 0.058019, cumulative = -4.27862
DILUPBiCGStab:  Solving for epsilon, Initial residual = 0, Final residual = 0, No Iterations 0
DILUPBiCGStab:  Solving for k, Initial residual = 0.13779, Final residual = 0.00881255, No Iterations 1
ExecutionTime = 0.49 s  ClockTime = 0 s

Time = 6

DILUPBiCGStab:  Solving for Ux, Initial residual = 0.229369, Final residual = 0.0195887, No Iterations 1
DILUPBiCGStab:  Solving for Uy, Initial residual = 0.308382, Final residual = 0.0303961, No Iterations 1
DILUPBiCGStab:  Solving for Uz, Initial residual = 0.337706, Final residual = 0.0142049, No Iterations 1
DILUPBiCGStab:  Solving for e, Initial residual = 0.0836156, Final residual = 0.00103442, No Iterations 1
DICPCG:  Solving for p_rgh, Initial residual = 0.852978, Final residual = 0.0071235, No Iterations 217
time step continuity errors : sum local = 302.662, global = -0.1579, cumulative = -4.43652
DILUPBiCGStab:  Solving for epsilon, Initial residual = 0, Final residual = 0, No Iterations 0
DILUPBiCGStab:  Solving for k, Initial residual = 0.123554, Final residual = 0.0080703, No Iterations 1
ExecutionTime = 0.55 s  ClockTime = 1 s

Time = 7

DILUPBiCGStab:  Solving for Ux, Initial residual = 0.170738, Final residual = 0.00953804, No Iterations 1
DILUPBiCGStab:  Solving for Uy, Initial residual = 0.195593, Final residual = 0.0134019, No Iterations 1
DILUPBiCGStab:  Solving for Uz, Initial residual = 0.383025, Final residual = 0.025989, No Iterations 1
DILUPBiCGStab:  Solving for e, Initial residual = 0.0657699, Final residual = 0.000909045, No Iterations 1
DICPCG:  Solving for p_rgh, Initial residual = 0.615219, Final residual = 0.00455495, No Iterations 221
time step continuity errors : sum local = 179.428, global = 0.174486, cumulative = -4.26204
DILUPBiCGStab:  Solving for epsilon, Initial residual = 0, Final residual = 0, No Iterations 0
DILUPBiCGStab:  Solving for k, Initial residual = 0.122627, Final residual = 0.007717, No Iterations 1
ExecutionTime = 0.62 s  ClockTime = 1 s

Time = 8

DILUPBiCGStab:  Solving for Ux, Initial residual = 0.222602, Final residual = 0.0155048, No Iterations 1
DILUPBiCGStab:  Solving for Uy, Initial residual = 0.262704, Final residual = 0.018506, No Iterations 1
DILUPBiCGStab:  Solving for Uz, Initial residual = 0.384324, Final residual = 0.0177132, No Iterations 1
DILUPBiCGStab:  Solving for e, Initial residual = 0.0489341, Final residual = 0.000704926, No Iterations 1
DICPCG:  Solving for p_rgh, Initial residual = 0.424688, Final residual = 0.00300135, No Iterations 220
time step continuity errors : sum local = 129.196, global = 0.0107519, cumulative = -4.25128
DILUPBiCGStab:  Solving for epsilon, Initial residual = 0, Final residual = 0, No Iterations 0
DILUPBiCGStab:  Solving for k, Initial residual = 0.0843217, Final residual = 0.0054992, No Iterations 1
ExecutionTime = 0.68 s  ClockTime = 1 s

Time = 9

DILUPBiCGStab:  Solving for Ux, Initial residual = 0.252015, Final residual = 0.00282446, No Iterations 1
DILUPBiCGStab:  Solving for Uy, Initial residual = 0.298844, Final residual = 0.00350974, No Iterations 1
DILUPBiCGStab:  Solving for Uz, Initial residual = 0.284213, Final residual = 0.0150966, No Iterations 1
DILUPBiCGStab:  Solving for e, Initial residual = 0.0444294, Final residual = 0.000538655, No Iterations 1
DICPCG:  Solving for p_rgh, Initial residual = 0.576035, Final residual = 0.00425913, No Iterations 219
time step continuity errors : sum local = 234.459, global = 0.0569647, cumulative = -4.19432
DILUPBiCGStab:  Solving for epsilon, Initial residual = 0, Final residual = 0, No Iterations 0
DILUPBiCGStab:  Solving for k, Initial residual = 0.070145, Final residual = 0.00534974, No Iterations 1
ExecutionTime = 0.74 s  ClockTime = 1 s

Time = 10

DILUPBiCGStab:  Solving for Ux, Initial residual = 0.146176, Final residual = 0.0108995, No Iterations 1
DILUPBiCGStab:  Solving for Uy, Initial residual = 0.168849, Final residual = 0.0124072, No Iterations 1
DILUPBiCGStab:  Solving for Uz, Initial residual = 0.254391, Final residual = 0.0122905, No Iterations 1
DILUPBiCGStab:  Solving for e, Initial residual = 0.0384314, Final residual = 0.000425394, No Iterations 1
DICPCG:  Solving for p_rgh, Initial residual = 0.650764, Final residual = 0.00493229, No Iterations 218
time step continuity errors : sum local = 200.847, global = 0.0222811, cumulative = -4.17204
DILUPBiCGStab:  Solving for epsilon, Initial residual = 0, Final residual = 0, No Iterations 0
DILUPBiCGStab:  Solving for k, Initial residual = 0.0715455, Final residual = 0.00519996, No Iterations 1
ExecutionTime = 0.8 s  ClockTime = 1 s

Time = 11

DILUPBiCGStab:  Solving for Ux, Initial residual = 0.191823, Final residual = 0.0177757, No Iterations 1
DILUPBiCGStab:  Solving for Uy, Initial residual = 0.227489, Final residual = 0.0191961, No Iterations 1
DILUPBiCGStab:  Solving for Uz, Initial residual = 0.272564, Final residual = 0.0136071, No Iterations 1
DILUPBiCGStab:  Solving for e, Initial residual = 0.0330106, Final residual = 0.000366135, No Iterations 1
DICPCG:  Solving for p_rgh, Initial residual = 0.651506, Final residual = 0.00560439, No Iterations 219
time step continuity errors : sum local = 170.003, global = -0.0942376, cumulative = -4.26628
DILUPBiCGStab:  Solving for epsilon, Initial residual = 0, Final residual = 0, No Iterations 0
DILUPBiCGStab:  Solving for k, Initial residual = 0.0607831, Final residual = 0.00506339, No Iterations 1
ExecutionTime = 0.86 s  ClockTime = 1 s

Time = 12

DILUPBiCGStab:  Solving for Ux, Initial residual = 0.216306, Final residual = 0.00285858, No Iterations 1
DILUPBiCGStab:  Solving for Uy, Initial residual = 0.251486, Final residual = 0.0220901, No Iterations 1
DILUPBiCGStab:  Solving for Uz, Initial residual = 0.215017, Final residual = 0.0105275, No Iterations 1
DILUPBiCGStab:  Solving for e, Initial residual = 0.0297176, Final residual = 0.000395871, No Iterations 1
DICPCG:  Solving for p_rgh, Initial residual = 0.58472, Final residual = 0.00500597, No Iterations 215
time step continuity errors : sum local = 184.579, global = -0.155259, cumulative = -4.42154
DILUPBiCGStab:  Solving for epsilon, Initial residual = 0, Final residual = 0, No Iterations 0
DILUPBiCGStab:  Solving for k, Initial residual = 0.0538742, Final residual = 0.00480085, No Iterations 1
ExecutionTime = 0.93 s  ClockTime = 1 s

Time = 13

DILUPBiCGStab:  Solving for Ux, Initial residual = 0.10754, Final residual = 0.00985761, No Iterations 1
DILUPBiCGStab:  Solving for Uy, Initial residual = 0.150232, Final residual = 0.012546, No Iterations 1
DILUPBiCGStab:  Solving for Uz, Initial residual = 0.188936, Final residual = 0.0146675, No Iterations 1
DILUPBiCGStab:  Solving for e, Initial residual = 0.0267896, Final residual = 0.00035387, No Iterations 1
DICPCG:  Solving for p_rgh, Initial residual = 0.731484, Final residual = 0.00600262, No Iterations 214
time step continuity errors : sum local = 158.022, global = -0.0291309, cumulative = -4.45067
DILUPBiCGStab:  Solving for epsilon, Initial residual = 0, Final residual = 0, No Iterations 0
DILUPBiCGStab:  Solving for k, Initial residual = 0.0507875, Final residual = 0.00473613, No Iterations 1
ExecutionTime = 0.99 s  ClockTime = 1 s

Time = 14

DILUPBiCGStab:  Solving for Ux, Initial residual = 0.112783, Final residual = 0.0106689, No Iterations 1
DILUPBiCGStab:  Solving for Uy, Initial residual = 0.156141, Final residual = 0.0135894, No Iterations 1
DILUPBiCGStab:  Solving for Uz, Initial residual = 0.203517, Final residual = 0.0126091, No Iterations 1
DILUPBiCGStab:  Solving for e, Initial residual = 0.0249857, Final residual = 0.000305656, No Iterations 1
DICPCG:  Solving for p_rgh, Initial residual = 0.406976, Final residual = 0.00402262, No Iterations 110
time step continuity errors : sum local = 143.768, global = -36.0339, cumulative = -40.4846
DILUPBiCGStab:  Solving for epsilon, Initial residual = 0, Final residual = 0, No Iterations 0
DILUPBiCGStab:  Solving for k, Initial residual = 0.0445639, Final residual = 0.00437958, No Iterations 1
ExecutionTime = 1.03 s  ClockTime = 1 s

Time = 15

DILUPBiCGStab:  Solving for Ux, Initial residual = 0.118754, Final residual = 0.00146894, No Iterations 1
DILUPBiCGStab:  Solving for Uy, Initial residual = 0.147976, Final residual = 0.0131662, No Iterations 1
DILUPBiCGStab:  Solving for Uz, Initial residual = 0.182651, Final residual = 0.0128638, No Iterations 1
DILUPBiCGStab:  Solving for e, Initial residual = 0.0241832, Final residual = 0.00027048, No Iterations 1
DICPCG:  Solving for p_rgh, Initial residual = 0.446532, Final residual = 0.00383664, No Iterations 220
time step continuity errors : sum local = 137.09, global = 0.0607356, cumulative = -40.4238
DILUPBiCGStab:  Solving for epsilon, Initial residual = 0, Final residual = 0, No Iterations 0
DILUPBiCGStab:  Solving for k, Initial residual = 0.0395095, Final residual = 0.0039153, No Iterations 1
ExecutionTime = 1.09 s  ClockTime = 1 s

Time = 16

DILUPBiCGStab:  Solving for Ux, Initial residual = 0.0610745, Final residual = 0.00401818, No Iterations 1
DILUPBiCGStab:  Solving for Uy, Initial residual = 0.0989755, Final residual = 0.00798293, No Iterations 1
DILUPBiCGStab:  Solving for Uz, Initial residual = 0.17634, Final residual = 0.00836337, No Iterations 1
DILUPBiCGStab:  Solving for e, Initial residual = 0.0238091, Final residual = 0.000262477, No Iterations 1
DICPCG:  Solving for p_rgh, Initial residual = 0.523166, Final residual = 0.00423331, No Iterations 215
time step continuity errors : sum local = 108.386, global = -0.181639, cumulative = -40.6055
DILUPBiCGStab:  Solving for epsilon, Initial residual = 0, Final residual = 0, No Iterations 0
DILUPBiCGStab:  Solving for k, Initial residual = 0.0375449, Final residual = 0.00369636, No Iterations 1
ExecutionTime = 1.15 s  ClockTime = 1 s

Time = 17

DILUPBiCGStab:  Solving for Ux, Initial residual = 0.0751391, Final residual = 0.00599686, No Iterations 1
DILUPBiCGStab:  Solving for Uy, Initial residual = 0.0919227, Final residual = 0.0070498, No Iterations 1
DILUPBiCGStab:  Solving for Uz, Initial residual = 0.161853, Final residual = 0.00736817, No Iterations 1
DILUPBiCGStab:  Solving for e, Initial residual = 0.0236039, Final residual = 0.000304756, No Iterations 1
DICPCG:  Solving for p_rgh, Initial residual = 0.590601, Final residual = 0.0046084, No Iterations 214
time step continuity errors : sum local = 78.1048, global = -0.0388524, cumulative = -40.6443
DILUPBiCGStab:  Solving for epsilon, Initial residual = 0, Final residual = 0, No Iterations 0
DILUPBiCGStab:  Solving for k, Initial residual = 0.0359523, Final residual = 0.00336824, No Iterations 1
ExecutionTime = 1.21 s  ClockTime = 1 s

Time = 18

DILUPBiCGStab:  Solving for Ux, Initial residual = 0.0815537, Final residual = 0.00609447, No Iterations 1
DILUPBiCGStab:  Solving for Uy, Initial residual = 0.0899024, Final residual = 0.00676392, No Iterations 1
DILUPBiCGStab:  Solving for Uz, Initial residual = 0.124627, Final residual = 0.00670945, No Iterations 1
DILUPBiCGStab:  Solving for e, Initial residual = 0.0244719, Final residual = 0.000272022, No Iterations 1
DICPCG:  Solving for p_rgh, Initial residual = 0.670213, Final residual = 0.00591208, No Iterations 214
time step continuity errors : sum local = 81.6787, global = -0.0693048, cumulative = -40.7136
DILUPBiCGStab:  Solving for epsilon, Initial residual = 0, Final residual = 0, No Iterations 0
DILUPBiCGStab:  Solving for k, Initial residual = 0.0339669, Final residual = 0.00297627, No Iterations 1
ExecutionTime = 1.27 s  ClockTime = 1 s

Time = 19

DILUPBiCGStab:  Solving for Ux, Initial residual = 0.045066, Final residual = 0.00246682, No Iterations 1
DILUPBiCGStab:  Solving for Uy, Initial residual = 0.0672996, Final residual = 0.00505704, No Iterations 1
DILUPBiCGStab:  Solving for Uz, Initial residual = 0.117096, Final residual = 0.00570789, No Iterations 1
DILUPBiCGStab:  Solving for e, Initial residual = 0.024988, Final residual = 0.000290381, No Iterations 1
DICPCG:  Solving for p_rgh, Initial residual = 0.54076, Final residual = 0.00539535, No Iterations 209
time step continuity errors : sum local = 86.8269, global = -0.151588, cumulative = -40.8652
DILUPBiCGStab:  Solving for epsilon, Initial residual = 0, Final residual = 0, No Iterations 0
DILUPBiCGStab:  Solving for k, Initial residual = 0.031349, Final residual = 0.00256416, No Iterations 1
ExecutionTime = 1.33 s  ClockTime = 1 s

Time = 20

DILUPBiCGStab:  Solving for Ux, Initial residual = 0.0513479, Final residual = 0.00264785, No Iterations 1
DILUPBiCGStab:  Solving for Uy, Initial residual = 0.0665803, Final residual = 0.00512246, No Iterations 1
DILUPBiCGStab:  Solving for Uz, Initial residual = 0.102769, Final residual = 0.00491986, No Iterations 1
DILUPBiCGStab:  Solving for e, Initial residual = 0.0251317, Final residual = 0.000322334, No Iterations 1
DICPCG:  Solving for p_rgh, Initial residual = 0.408253, Final residual = 0.00394526, No Iterations 128
time step continuity errors : sum local = 72.1348, global = -4.46274, cumulative = -45.328
DILUPBiCGStab:  Solving for epsilon, Initial residual = 0, Final residual = 0, No Iterations 0
DILUPBiCGStab:  Solving for k, Initial residual = 0.0292274, Final residual = 0.00222754, No Iterations 1
ExecutionTime = 1.38 s  ClockTime = 1 s

Time = 21

DILUPBiCGStab:  Solving for Ux, Initial residual = 0.0504103, Final residual = 0.0027152, No Iterations 1
DILUPBiCGStab:  Solving for Uy, Initial residual = 0.0594832, Final residual = 0.00382033, No Iterations 1
DILUPBiCGStab:  Solving for Uz, Initial residual = 0.0955954, Final residual = 0.00485837, No Iterations 1
DILUPBiCGStab:  Solving for e, Initial residual = 0.024939, Final residual = 0.000357986, No Iterations 1
DICPCG:  Solving for p_rgh, Initial residual = 0.377356, Final residual = 0.00364344, No Iterations 211
time step continuity errors : sum local = 64.7057, global = 0.11561, cumulative = -45.2123
DILUPBiCGStab:  Solving for epsilon, Initial residual = 0, Final residual = 0, No Iterations 0
DILUPBiCGStab:  Solving for k, Initial residual = 0.0274994, Final residual = 0.00189108, No Iterations 1
ExecutionTime = 1.44 s  ClockTime = 1 s

Time = 22

DILUPBiCGStab:  Solving for Ux, Initial residual = 0.0338107, Final residual = 0.00138523, No Iterations 1
DILUPBiCGStab:  Solving for Uy, Initial residual = 0.0508731, Final residual = 0.00255364, No Iterations 1
DILUPBiCGStab:  Solving for Uz, Initial residual = 0.098572, Final residual = 0.00405317, No Iterations 1
DILUPBiCGStab:  Solving for e, Initial residual = 0.0252558, Final residual = 0.000397216, No Iterations 1
DICPCG:  Solving for p_rgh, Initial residual = 0.387045, Final residual = 0.00342699, No Iterations 208
time step continuity errors : sum local = 50.8381, global = -0.0130338, cumulative = -45.2254
DILUPBiCGStab:  Solving for epsilon, Initial residual = 0, Final residual = 0, No Iterations 0
DILUPBiCGStab:  Solving for k, Initial residual = 0.0261303, Final residual = 0.00170158, No Iterations 1
ExecutionTime = 1.5 s  ClockTime = 1 s

Time = 23

DILUPBiCGStab:  Solving for Ux, Initial residual = 0.0403417, Final residual = 0.00198932, No Iterations 1
DILUPBiCGStab:  Solving for Uy, Initial residual = 0.0502774, Final residual = 0.00306262, No Iterations 1
DILUPBiCGStab:  Solving for Uz, Initial residual = 0.084082, Final residual = 0.00358332, No Iterations 1
DILUPBiCGStab:  Solving for e, Initial residual = 0.0252546, Final residual = 0.000444714, No Iterations 1
DICPCG:  Solving for p_rgh, Initial residual = 0.410504, Final residual = 0.00408619, No Iterations 38
time step continuity errors : sum local = 51.0931, global = -1.78988, cumulative = -47.0153
DILUPBiCGStab:  Solving for epsilon, Initial residual = 0, Final residual = 0, No Iterations 0
DILUPBiCGStab:  Solving for k, Initial residual = 0.0246991, Final residual = 0.00146586, No Iterations 1
ExecutionTime = 1.53 s  ClockTime = 1 s

Time = 24

DILUPBiCGStab:  Solving for Ux, Initial residual = 0.0367758, Final residual = 0.00182204, No Iterations 1
DILUPBiCGStab:  Solving for Uy, Initial residual = 0.0441124, Final residual = 0.00286481, No Iterations 1
DILUPBiCGStab:  Solving for Uz, Initial residual = 0.0793758, Final residual = 0.00367207, No Iterations 1
DILUPBiCGStab:  Solving for e, Initial residual = 0.024932, Final residual = 0.000411445, No Iterations 1
DICPCG:  Solving for p_rgh, Initial residual = 0.442139, Final residual = 0.00438926, No Iterations 212
time step continuity errors : sum local = 51.5324, global = 0.0633675, cumulative = -46.9519
DILUPBiCGStab:  Solving for epsilon, Initial residual = 0, Final residual = 0, No Iterations 0
DILUPBiCGStab:  Solving for k, Initial residual = 0.0235379, Final residual = 0.00136035, No Iterations 1
ExecutionTime = 1.59 s  ClockTime = 2 s

Time = 25

DILUPBiCGStab:  Solving for Ux, Initial residual = 0.0286779, Final residual = 0.00120475, No Iterations 1
DILUPBiCGStab:  Solving for Uy, Initial residual = 0.0391994, Final residual = 0.00257214, No Iterations 1
DILUPBiCGStab:  Solving for Uz, Initial residual = 0.084767, Final residual = 0.00512515, No Iterations 1
DILUPBiCGStab:  Solving for e, Initial residual = 0.0244685, Final residual = 0.000413625, No Iterations 1
DICPCG:  Solving for p_rgh, Initial residual = 0.346163, Final residual = 0.00316836, No Iterations 209
time step continuity errors : sum local = 39.4787, global = -0.012472, cumulative = -46.9644
DILUPBiCGStab:  Solving for epsilon, Initial residual = 0, Final residual = 0, No Iterations 0
DILUPBiCGStab:  Solving for k, Initial residual = 0.0227525, Final residual = 0.0012369, No Iterations 1
ExecutionTime = 1.65 s  ClockTime = 2 s

Time = 26

DILUPBiCGStab:  Solving for Ux, Initial residual = 0.0302939, Final residual = 0.00120675, No Iterations 1
DILUPBiCGStab:  Solving for Uy, Initial residual = 0.0384113, Final residual = 0.00226731, No Iterations 1
DILUPBiCGStab:  Solving for Uz, Initial residual = 0.088412, Final residual = 0.00437255, No Iterations 1
DILUPBiCGStab:  Solving for e, Initial residual = 0.0245472, Final residual = 0.000432497, No Iterations 1
DICPCG:  Solving for p_rgh, Initial residual = 0.300609, Final residual = 0.00297187, No Iterations 67
time step continuity errors : sum local = 39.8396, global = -3.38199, cumulative = -50.3464
DILUPBiCGStab:  Solving for epsilon, Initial residual = 0, Final residual = 0, No Iterations 0
DILUPBiCGStab:  Solving for k, Initial residual = 0.0214876, Final residual = 0.0011157, No Iterations 1
ExecutionTime = 1.68 s  ClockTime = 2 s

Time = 27

DILUPBiCGStab:  Solving for Ux, Initial residual = 0.0254257, Final residual = 0.000968837, No Iterations 1
DILUPBiCGStab:  Solving for Uy, Initial residual = 0.0343618, Final residual = 0.00185208, No Iterations 1
DILUPBiCGStab:  Solving for Uz, Initial residual = 0.0858868, Final residual = 0.00454491, No Iterations 1
DILUPBiCGStab:  Solving for e, Initial residual = 0.0241868, Final residual = 0.000451232, No Iterations 1
DICPCG:  Solving for p_rgh, Initial residual = 0.306029, Final residual = 0.00301791, No Iterations 158
time step continuity errors : sum local = 36.0625, global = 2.73038, cumulative = -47.616
DILUPBiCGStab:  Solving for epsilon, Initial residual = 0, Final residual = 0, No Iterations 0
DILUPBiCGStab:  Solving for k, Initial residual = 0.0198592, Final residual = 0.00102499, No Iterations 1
ExecutionTime = 1.74 s  ClockTime = 2 s

Time = 28

DILUPBiCGStab:  Solving for Ux, Initial residual = 0.0209908, Final residual = 0.000718121, No Iterations 1
DILUPBiCGStab:  Solving for Uy, Initial residual = 0.0328146, Final residual = 0.0018394, No Iterations 1
DILUPBiCGStab:  Solving for Uz, Initial residual = 0.0964734, Final residual = 0.00458341, No Iterations 1
DILUPBiCGStab:  Solving for e, Initial residual = 0.0231816, Final residual = 0.000487436, No Iterations 1
DICPCG:  Solving for p_rgh, Initial residual = 0.282602, Final residual = 0.00246572, No Iterations 161
time step continuity errors : sum local = 28.4594, global = 4.15065, cumulative = -43.4653
DILUPBiCGStab:  Solving for epsilon, Initial residual = 0, Final residual = 0, No Iterations 0
DILUPBiCGStab:  Solving for k, Initial residual = 0.018426, Final residual = 0.000959336, No Iterations 1
ExecutionTime = 1.79 s  ClockTime = 2 s

Time = 29

DILUPBiCGStab:  Solving for Ux, Initial residual = 0.0203056, Final residual = 0.000779949, No Iterations 1
DILUPBiCGStab:  Solving for Uy, Initial residual = 0.0335296, Final residual = 0.00203401, No Iterations 1
DILUPBiCGStab:  Solving for Uz, Initial residual = 0.0871346, Final residual = 0.00439757, No Iterations 1
DILUPBiCGStab:  Solving for e, Initial residual = 0.0219305, Final residual = 0.000525975, No Iterations 1
DICPCG:  Solving for p_rgh, Initial residual = 0.258881, Final residual = 0.00225091, No Iterations 121
time step continuity errors : sum local = 25.9363, global = 1.06852, cumulative = -42.3968
DILUPBiCGStab:  Solving for epsilon, Initial residual = 0, Final residual = 0, No Iterations 0
DILUPBiCGStab:  Solving for k, Initial residual = 0.0173119, Final residual = 0.00087375, No Iterations 1
ExecutionTime = 1.83 s  ClockTime = 2 s

Time = 30

DILUPBiCGStab:  Solving for Ux, Initial residual = 0.0188066, Final residual = 0.000725369, No Iterations 1
DILUPBiCGStab:  Solving for Uy, Initial residual = 0.0321189, Final residual = 0.0019506, No Iterations 1
DILUPBiCGStab:  Solving for Uz, Initial residual = 0.0771826, Final residual = 0.00449998, No Iterations 1
DILUPBiCGStab:  Solving for e, Initial residual = 0.0209687, Final residual = 0.000545845, No Iterations 1
DICPCG:  Solving for p_rgh, Initial residual = 0.229633, Final residual = 0.00226934, No Iterations 127
time step continuity errors : sum local = 26.5311, global = -7.45593, cumulative = -49.8527
DILUPBiCGStab:  Solving for epsilon, Initial residual = 0, Final residual = 0, No Iterations 0
DILUPBiCGStab:  Solving for k, Initial residual = 0.0165981, Final residual = 0.000793736, No Iterations 1
ExecutionTime = 1.88 s  ClockTime = 2 s

Time = 31

DILUPBiCGStab:  Solving for Ux, Initial residual = 0.0177894, Final residual = 0.00069456, No Iterations 1
DILUPBiCGStab:  Solving for Uy, Initial residual = 0.0323914, Final residual = 0.00216262, No Iterations 1
DILUPBiCGStab:  Solving for Uz, Initial residual = 0.078482, Final residual = 0.00441671, No Iterations 1
DILUPBiCGStab:  Solving for e, Initial residual = 0.0199923, Final residual = 0.000552131, No Iterations 1
DICPCG:  Solving for p_rgh, Initial residual = 0.218798, Final residual = 0.00199154, No Iterations 205
time step continuity errors : sum local = 22.0753, global = -0.003592, cumulative = -49.8563
DILUPBiCGStab:  Solving for epsilon, Initial residual = 0, Final residual = 0, No Iterations 0
DILUPBiCGStab:  Solving for k, Initial residual = 0.0157985, Final residual = 0.000738106, No Iterations 1
ExecutionTime = 1.94 s  ClockTime = 2 s

Time = 32

DILUPBiCGStab:  Solving for Ux, Initial residual = 0.0164456, Final residual = 0.000490337, No Iterations 1
DILUPBiCGStab:  Solving for Uy, Initial residual = 0.0278835, Final residual = 0.00174285, No Iterations 1
DILUPBiCGStab:  Solving for Uz, Initial residual = 0.0773378, Final residual = 0.00437113, No Iterations 1
DILUPBiCGStab:  Solving for e, Initial residual = 0.0189756, Final residual = 0.000549216, No Iterations 1
DICPCG:  Solving for p_rgh, Initial residual = 0.177069, Final residual = 0.00156101, No Iterations 205
time step continuity errors : sum local = 19.2967, global = -0.0443689, cumulative = -49.9007
DILUPBiCGStab:  Solving for epsilon, Initial residual = 0, Final residual = 0, No Iterations 0
DILUPBiCGStab:  Solving for k, Initial residual = 0.0152139, Final residual = 0.000685614, No Iterations 1
ExecutionTime = 2 s  ClockTime = 2 s

Time = 33

DILUPBiCGStab:  Solving for Ux, Initial residual = 0.0156333, Final residual = 0.000406169, No Iterations 1
DILUPBiCGStab:  Solving for Uy, Initial residual = 0.02651, Final residual = 0.00165003, No Iterations 1
DILUPBiCGStab:  Solving for Uz, Initial residual = 0.0699815, Final residual = 0.0039904, No Iterations 1
DILUPBiCGStab:  Solving for e, Initial residual = 0.0183878, Final residual = 0.000537938, No Iterations 1
DICPCG:  Solving for p_rgh, Initial residual = 0.153418, Final residual = 0.00149115, No Iterations 165
time step continuity errors : sum local = 20.4438, global = -3.63348, cumulative = -53.5342
DILUPBiCGStab:  Solving for epsilon, Initial residual = 0, Final residual = 0, No Iterations 0
DILUPBiCGStab:  Solving for k, Initial residual = 0.0146384, Final residual = 0.000646745, No Iterations 1
ExecutionTime = 2.05 s  ClockTime = 2 s

Time = 34

DILUPBiCGStab:  Solving for Ux, Initial residual = 0.0144421, Final residual = 0.000374935, No Iterations 1
DILUPBiCGStab:  Solving for Uy, Initial residual = 0.0245409, Final residual = 0.00166491, No Iterations 1
DILUPBiCGStab:  Solving for Uz, Initial residual = 0.0663781, Final residual = 0.00342822, No Iterations 1
DILUPBiCGStab:  Solving for e, Initial residual = 0.0178461, Final residual = 0.000526368, No Iterations 1
DICPCG:  Solving for p_rgh, Initial residual = 0.158036, Final residual = 0.00148307, No Iterations 165
time step continuity errors : sum local = 17.9614, global = -3.35889, cumulative = -56.8931
DILUPBiCGStab:  Solving for epsilon, Initial residual = 0, Final residual = 0, No Iterations 0
DILUPBiCGStab:  Solving for k, Initial residual = 0.0139493, Final residual = 0.00063199, No Iterations 1
ExecutionTime = 2.1 s  ClockTime = 2 s

Time = 35

DILUPBiCGStab:  Solving for Ux, Initial residual = 0.0141975, Final residual = 0.000455907, No Iterations 1
DILUPBiCGStab:  Solving for Uy, Initial residual = 0.0236338, Final residual = 0.00162884, No Iterations 1
DILUPBiCGStab:  Solving for Uz, Initial residual = 0.0642592, Final residual = 0.00298507, No Iterations 1
DILUPBiCGStab:  Solving for e, Initial residual = 0.0172902, Final residual = 0.000503769, No Iterations 1
DICPCG:  Solving for p_rgh, Initial residual = 0.14053, Final residual = 0.00112762, No Iterations 209
time step continuity errors : sum local = 13.939, global = 0.0141991, cumulative = -56.8789
DILUPBiCGStab:  Solving for epsilon, Initial residual = 0, Final residual = 0, No Iterations 0
DILUPBiCGStab:  Solving for k, Initial residual = 0.0132643, Final residual = 0.000643681, No Iterations 1
ExecutionTime = 2.16 s  ClockTime = 2 s

Time = 36

DILUPBiCGStab:  Solving for Ux, Initial residual = 0.0132747, Final residual = 0.000369031, No Iterations 1
DILUPBiCGStab:  Solving for Uy, Initial residual = 0.0231264, Final residual = 0.00144648, No Iterations 1
DILUPBiCGStab:  Solving for Uz, Initial residual = 0.0629008, Final residual = 0.00266732, No Iterations 1
DILUPBiCGStab:  Solving for e, Initial residual = 0.0170381, Final residual = 0.000476611, No Iterations 1
DICPCG:  Solving for p_rgh, Initial residual = 0.131252, Final residual = 0.00119826, No Iterations 210
time step continuity errors : sum local = 14.1524, global = -0.00658117, cumulative = -56.8855
DILUPBiCGStab:  Solving for epsilon, Initial residual = 0, Final residual = 0, No Iterations 0
DILUPBiCGStab:  Solving for k, Initial residual = 0.0126092, Final residual = 0.000669127, No Iterations 1
ExecutionTime = 2.22 s  ClockTime = 2 s

Time = 37

DILUPBiCGStab:  Solving for Ux, Initial residual = 0.0120389, Final residual = 0.000286512, No Iterations 1
DILUPBiCGStab:  Solving for Uy, Initial residual = 0.0225467, Final residual = 0.00131678, No Iterations 1
DILUPBiCGStab:  Solving for Uz, Initial residual = 0.0586096, Final residual = 0.00260232, No Iterations 1
DILUPBiCGStab:  Solving for e, Initial residual = 0.0166511, Final residual = 0.000453467, No Iterations 1
DICPCG:  Solving for p_rgh, Initial residual = 0.119788, Final residual = 0.000965297, No Iterations 208
time step continuity errors : sum local = 11.3565, global = -0.0180347, cumulative = -56.9035
DILUPBiCGStab:  Solving for epsilon, Initial residual = 0, Final residual = 0, No Iterations 0
DILUPBiCGStab:  Solving for k, Initial residual = 0.0119089, Final residual = 0.000714716, No Iterations 1
ExecutionTime = 2.28 s  ClockTime = 2 s

Time = 38

DILUPBiCGStab:  Solving for Ux, Initial residual = 0.0107751, Final residual = 0.000257428, No Iterations 1
DILUPBiCGStab:  Solving for Uy, Initial residual = 0.0217288, Final residual = 0.0012499, No Iterations 1
DILUPBiCGStab:  Solving for Uz, Initial residual = 0.0507243, Final residual = 0.00268794, No Iterations 1
DILUPBiCGStab:  Solving for e, Initial residual = 0.0162211, Final residual = 0.000429564, No Iterations 1
DICPCG:  Solving for p_rgh, Initial residual = 0.111815, Final residual = 0.00101776, No Iterations 209
time step continuity errors : sum local = 11.688, global = -0.0046339, cumulative = -56.9081
DILUPBiCGStab:  Solving for epsilon, Initial residual = 0, Final residual = 0, No Iterations 0
DILUPBiCGStab:  Solving for k, Initial residual = 0.0112295, Final residual = 0.00073572, No Iterations 1
ExecutionTime = 2.34 s  ClockTime = 2 s

Time = 39

DILUPBiCGStab:  Solving for Ux, Initial residual = 0.00935836, Final residual = 0.000245499, No Iterations 1
DILUPBiCGStab:  Solving for Uy, Initial residual = 0.0205626, Final residual = 0.00119167, No Iterations 1
DILUPBiCGStab:  Solving for Uz, Initial residual = 0.0487623, Final residual = 0.00276116, No Iterations 1
DILUPBiCGStab:  Solving for e, Initial residual = 0.0157313, Final residual = 0.000405846, No Iterations 1
DICPCG:  Solving for p_rgh, Initial residual = 0.101231, Final residual = 0.000994464, No Iterations 168
time step continuity errors : sum local = 11.2974, global = -2.51606, cumulative = -59.4242
DILUPBiCGStab:  Solving for epsilon, Initial residual = 0, Final residual = 0, No Iterations 0
DILUPBiCGStab:  Solving for k, Initial residual = 0.0105975, Final residual = 0.000735841, No Iterations 1
ExecutionTime = 2.39 s  ClockTime = 2 s

Time = 40

DILUPBiCGStab:  Solving for Ux, Initial residual = 0.00841862, Final residual = 0.000299081, No Iterations 1
DILUPBiCGStab:  Solving for Uy, Initial residual = 0.0194732, Final residual = 0.00113142, No Iterations 1
DILUPBiCGStab:  Solving for Uz, Initial residual = 0.0466221, Final residual = 0.00268555, No Iterations 1
DILUPBiCGStab:  Solving for e, Initial residual = 0.015186, Final residual = 0.000384403, No Iterations 1
DICPCG:  Solving for p_rgh, Initial residual = 0.0946573, Final residual = 0.000869907, No Iterations 208
time step continuity errors : sum local = 9.64047, global = -0.0132378, cumulative = -59.4374
DILUPBiCGStab:  Solving for epsilon, Initial residual = 0, Final residual = 0, No Iterations 0
DILUPBiCGStab:  Solving for k, Initial residual = 0.0100066, Final residual = 0.000701739, No Iterations 1
ExecutionTime = 2.46 s  ClockTime = 2 s

Time = 41

DILUPBiCGStab:  Solving for Ux, Initial residual = 0.0076445, Final residual = 0.00029068, No Iterations 1
DILUPBiCGStab:  Solving for Uy, Initial residual = 0.0180408, Final residual = 0.000935998, No Iterations 1
DILUPBiCGStab:  Solving for Uz, Initial residual = 0.0449644, Final residual = 0.00256226, No Iterations 1
DILUPBiCGStab:  Solving for e, Initial residual = 0.014579, Final residual = 0.000362558, No Iterations 1
DICPCG:  Solving for p_rgh, Initial residual = 0.085456, Final residual = 0.000806618, No Iterations 208
time step continuity errors : sum local = 8.95685, global = -0.00374425, cumulative = -59.4412
DILUPBiCGStab:  Solving for epsilon, Initial residual = 0, Final residual = 0, No Iterations 0
DILUPBiCGStab:  Solving for k, Initial residual = 0.00948478, Final residual = 0.000661308, No Iterations 1
ExecutionTime = 2.52 s  ClockTime = 2 s

Time = 42

DILUPBiCGStab:  Solving for Ux, Initial residual = 0.00716253, Final residual = 0.000291876, No Iterations 1
DILUPBiCGStab:  Solving for Uy, Initial residual = 0.0170934, Final residual = 0.000818191, No Iterations 1
DILUPBiCGStab:  Solving for Uz, Initial residual = 0.0419492, Final residual = 0.00245865, No Iterations 1
DILUPBiCGStab:  Solving for e, Initial residual = 0.0139534, Final residual = 0.000336943, No Iterations 1
DICPCG:  Solving for p_rgh, Initial residual = 0.0783109, Final residual = 0.000707995, No Iterations 207
time step continuity errors : sum local = 7.91404, global = -0.0118653, cumulative = -59.453
DILUPBiCGStab:  Solving for epsilon, Initial residual = 0, Final residual = 0, No Iterations 0
DILUPBiCGStab:  Solving for k, Initial residual = 0.00904151, Final residual = 0.000618681, No Iterations 1
ExecutionTime = 2.58 s  ClockTime = 3 s

Time = 43

DILUPBiCGStab:  Solving for Ux, Initial residual = 0.00699906, Final residual = 0.000309173, No Iterations 1
DILUPBiCGStab:  Solving for Uy, Initial residual = 0.016321, Final residual = 0.000805777, No Iterations 1
DILUPBiCGStab:  Solving for Uz, Initial residual = 0.0404146, Final residual = 0.00240208, No Iterations 1
DILUPBiCGStab:  Solving for e, Initial residual = 0.013282, Final residual = 0.000312319, No Iterations 1
DICPCG:  Solving for p_rgh, Initial residual = 0.0731083, Final residual = 0.0006764, No Iterations 154
time step continuity errors : sum local = 7.51857, global = -1.4752, cumulative = -60.9282
DILUPBiCGStab:  Solving for epsilon, Initial residual = 0, Final residual = 0, No Iterations 0
DILUPBiCGStab:  Solving for k, Initial residual = 0.00870125, Final residual = 0.000582534, No Iterations 1
ExecutionTime = 2.63 s  ClockTime = 3 s

Time = 44

DILUPBiCGStab:  Solving for Ux, Initial residual = 0.0070416, Final residual = 0.000350235, No Iterations 1
DILUPBiCGStab:  Solving for Uy, Initial residual = 0.0157983, Final residual = 0.000883727, No Iterations 1
DILUPBiCGStab:  Solving for Uz, Initial residual = 0.0411071, Final residual = 0.0023211, No Iterations 1
DILUPBiCGStab:  Solving for e, Initial residual = 0.0126141, Final residual = 0.000290502, No Iterations 1
DICPCG:  Solving for p_rgh, Initial residual = 0.0717595, Final residual = 0.000620995, No Iterations 204
time step continuity errors : sum local = 6.7848, global = -0.00483093, cumulative = -60.9331
DILUPBiCGStab:  Solving for epsilon, Initial residual = 0, Final residual = 0, No Iterations 0
DILUPBiCGStab:  Solving for k, Initial residual = 0.00840637, Final residual = 0.000546833, No Iterations 1
ExecutionTime = 2.7 s  ClockTime = 3 s

Time = 45

DILUPBiCGStab:  Solving for Ux, Initial residual = 0.00701028, Final residual = 0.000365796, No Iterations 1
DILUPBiCGStab:  Solving for Uy, Initial residual = 0.0154683, Final residual = 0.000936248, No Iterations 1
DILUPBiCGStab:  Solving for Uz, Initial residual = 0.0387856, Final residual = 0.00224357, No Iterations 1
DILUPBiCGStab:  Solving for e, Initial residual = 0.0119995, Final residual = 0.00027129, No Iterations 1
DICPCG:  Solving for p_rgh, Initial residual = 0.0699938, Final residual = 0.000532212, No Iterations 206
time step continuity errors : sum local = 5.79528, global = -0.00772364, cumulative = -60.9408
DILUPBiCGStab:  Solving for epsilon, Initial residual = 0, Final residual = 0, No Iterations 0
DILUPBiCGStab:  Solving for k, Initial residual = 0.00822547, Final residual = 0.000521689, No Iterations 1
ExecutionTime = 2.76 s  ClockTime = 3 s

Time = 46

DILUPBiCGStab:  Solving for Ux, Initial residual = 0.00696274, Final residual = 0.000370235, No Iterations 1
DILUPBiCGStab:  Solving for Uy, Initial residual = 0.0151435, Final residual = 0.000962864, No Iterations 1
DILUPBiCGStab:  Solving for Uz, Initial residual = 0.0384092, Final residual = 0.00214535, No Iterations 1
DILUPBiCGStab:  Solving for e, Initial residual = 0.0114199, Final residual = 0.000252576, No Iterations 1
DICPCG:  Solving for p_rgh, Initial residual = 0.0695731, Final residual = 0.000614956, No Iterations 205
time step continuity errors : sum local = 6.70462, global = -0.0116412, cumulative = -60.9524
DILUPBiCGStab:  Solving for epsilon, Initial residual = 0, Final residual = 0, No Iterations 0
DILUPBiCGStab:  Solving for k, Initial residual = 0.00810607, Final residual = 0.000521697, No Iterations 1
ExecutionTime = 2.82 s  ClockTime = 3 s

Time = 47

DILUPBiCGStab:  Solving for Ux, Initial residual = 0.00693502, Final residual = 0.000385404, No Iterations 1
DILUPBiCGStab:  Solving for Uy, Initial residual = 0.0147733, Final residual = 0.000962233, No Iterations 1
DILUPBiCGStab:  Solving for Uz, Initial residual = 0.0371553, Final residual = 0.00211495, No Iterations 1
DILUPBiCGStab:  Solving for e, Initial residual = 0.0108884, Final residual = 0.000239742, No Iterations 1
DICPCG:  Solving for p_rgh, Initial residual = 0.0698587, Final residual = 0.000510044, No Iterations 206
time step continuity errors : sum local = 5.56403, global = -0.00828012, cumulative = -60.9607
DILUPBiCGStab:  Solving for epsilon, Initial residual = 0, Final residual = 0, No Iterations 0
DILUPBiCGStab:  Solving for k, Initial residual = 0.00804217, Final residual = 0.000491595, No Iterations 1
ExecutionTime = 2.88 s  ClockTime = 3 s

Time = 48

DILUPBiCGStab:  Solving for Ux, Initial residual = 0.00698338, Final residual = 0.000370352, No Iterations 1
DILUPBiCGStab:  Solving for Uy, Initial residual = 0.0143788, Final residual = 0.000910647, No Iterations 1
DILUPBiCGStab:  Solving for Uz, Initial residual = 0.0369468, Final residual = 0.00204792, No Iterations 1
DILUPBiCGStab:  Solving for e, Initial residual = 0.0104411, Final residual = 0.000225525, No Iterations 1
DICPCG:  Solving for p_rgh, Initial residual = 0.0693816, Final residual = 0.000569598, No Iterations 206
time step continuity errors : sum local = 6.20391, global = -0.00576928, cumulative = -60.9665
DILUPBiCGStab:  Solving for epsilon, Initial residual = 0, Final residual = 0, No Iterations 0
DILUPBiCGStab:  Solving for k, Initial residual = 0.00797684, Final residual = 0.000464304, No Iterations 1
ExecutionTime = 2.94 s  ClockTime = 3 s

Time = 49

DILUPBiCGStab:  Solving for Ux, Initial residual = 0.00705592, Final residual = 0.000379145, No Iterations 1
DILUPBiCGStab:  Solving for Uy, Initial residual = 0.0141091, Final residual = 0.000883759, No Iterations 1
DILUPBiCGStab:  Solving for Uz, Initial residual = 0.0370637, Final residual = 0.00197259, No Iterations 1
DILUPBiCGStab:  Solving for e, Initial residual = 0.0100231, Final residual = 0.00020759, No Iterations 1
DICPCG:  Solving for p_rgh, Initial residual = 0.0695524, Final residual = 0.000685178, No Iterations 158
time step continuity errors : sum local = 7.48896, global = -1.86862, cumulative = -62.8351
DILUPBiCGStab:  Solving for epsilon, Initial residual = 0, Final residual = 0, No Iterations 0
DILUPBiCGStab:  Solving for k, Initial residual = 0.0079508, Final residual = 0.000443351, No Iterations 1
ExecutionTime = 2.99 s  ClockTime = 3 s

Time = 50

DILUPBiCGStab:  Solving for Ux, Initial residual = 0.00723327, Final residual = 0.000404815, No Iterations 1
DILUPBiCGStab:  Solving for Uy, Initial residual = 0.0139811, Final residual = 0.000895595, No Iterations 1
DILUPBiCGStab:  Solving for Uz, Initial residual = 0.0362983, Final residual = 0.00188092, No Iterations 1
DILUPBiCGStab:  Solving for e, Initial residual = 0.00966218, Final residual = 0.000195059, No Iterations 1
DICPCG:  Solving for p_rgh, Initial residual = 0.0682411, Final residual = 0.000498564, No Iterations 206
time step continuity errors : sum local = 5.41873, global = -0.00267335, cumulative = -62.8378
DILUPBiCGStab:  Solving for epsilon, Initial residual = 0, Final residual = 0, No Iterations 0
DILUPBiCGStab:  Solving for k, Initial residual = 0.00786335, Final residual = 0.000424854, No Iterations 1
ExecutionTime = 3.05 s  ClockTime = 3 s

Time = 51

DILUPBiCGStab:  Solving for Ux, Initial residual = 0.00722165, Final residual = 0.000390688, No Iterations 1
DILUPBiCGStab:  Solving for Uy, Initial residual = 0.013931, Final residual = 0.000849546, No Iterations 1
DILUPBiCGStab:  Solving for Uz, Initial residual = 0.0360079, Final residual = 0.00181424, No Iterations 1
DILUPBiCGStab:  Solving for e, Initial residual = 0.00936417, Final residual = 0.000187639, No Iterations 1
DICPCG:  Solving for p_rgh, Initial residual = 0.0661231, Final residual = 0.000626777, No Iterations 205
time step continuity errors : sum local = 6.84534, global = -0.00253176, cumulative = -62.8403
DILUPBiCGStab:  Solving for epsilon, Initial residual = 0, Final residual = 0, No Iterations 0
DILUPBiCGStab:  Solving for k, Initial residual = 0.00785291, Final residual = 0.000388972, No Iterations 1
ExecutionTime = 3.11 s  ClockTime = 3 s

Time = 52

DILUPBiCGStab:  Solving for Ux, Initial residual = 0.00729802, Final residual = 0.000369209, No Iterations 1
DILUPBiCGStab:  Solving for Uy, Initial residual = 0.0139709, Final residual = 0.000818996, No Iterations 1
DILUPBiCGStab:  Solving for Uz, Initial residual = 0.0340863, Final residual = 0.00171479, No Iterations 1
DILUPBiCGStab:  Solving for e, Initial residual = 0.00906777, Final residual = 0.000174639, No Iterations 1
DICPCG:  Solving for p_rgh, Initial residual = 0.0693022, Final residual = 0.000664797, No Iterations 107
time step continuity errors : sum local = 7.30936, global = -0.668361, cumulative = -63.5087
DILUPBiCGStab:  Solving for epsilon, Initial residual = 0, Final residual = 0, No Iterations 0
DILUPBiCGStab:  Solving for k, Initial residual = 0.00783643, Final residual = 0.000366525, No Iterations 1
ExecutionTime = 3.15 s  ClockTime = 3 s

Time = 53

DILUPBiCGStab:  Solving for Ux, Initial residual = 0.00758702, Final residual = 0.000403256, No Iterations 1
DILUPBiCGStab:  Solving for Uy, Initial residual = 0.0140736, Final residual = 0.000865628, No Iterations 1
DILUPBiCGStab:  Solving for Uz, Initial residual = 0.0344794, Final residual = 0.00163861, No Iterations 1
DILUPBiCGStab:  Solving for e, Initial residual = 0.00877247, Final residual = 0.000163429, No Iterations 1
DICPCG:  Solving for p_rgh, Initial residual = 0.0674157, Final residual = 0.000670878, No Iterations 92
time step continuity errors : sum local = 7.35761, global = -0.33461, cumulative = -63.8433
DILUPBiCGStab:  Solving for epsilon, Initial residual = 0, Final residual = 0, No Iterations 0
DILUPBiCGStab:  Solving for k, Initial residual = 0.00785324, Final residual = 0.000343807, No Iterations 1
ExecutionTime = 3.19 s  ClockTime = 3 s

Time = 54

DILUPBiCGStab:  Solving for Ux, Initial residual = 0.00796554, Final residual = 0.000421785, No Iterations 1
DILUPBiCGStab:  Solving for Uy, Initial residual = 0.0142303, Final residual = 0.0008211, No Iterations 1
DILUPBiCGStab:  Solving for Uz, Initial residual = 0.0344599, Final residual = 0.00157807, No Iterations 1
DILUPBiCGStab:  Solving for e, Initial residual = 0.00852329, Final residual = 0.000158332, No Iterations 1
DICPCG:  Solving for p_rgh, Initial residual = 0.0654675, Final residual = 0.000632564, No Iterations 92
time step continuity errors : sum local = 6.89933, global = -0.733503, cumulative = -64.5768
DILUPBiCGStab:  Solving for epsilon, Initial residual = 0, Final residual = 0, No Iterations 0
DILUPBiCGStab:  Solving for k, Initial residual = 0.00789113, Final residual = 0.000318062, No Iterations 1
ExecutionTime = 3.23 s  ClockTime = 3 s

Time = 55

DILUPBiCGStab:  Solving for Ux, Initial residual = 0.00826185, Final residual = 0.000428277, No Iterations 1
DILUPBiCGStab:  Solving for Uy, Initial residual = 0.0143035, Final residual = 0.000794498, No Iterations 1
DILUPBiCGStab:  Solving for Uz, Initial residual = 0.034764, Final residual = 0.00153047, No Iterations 1
DILUPBiCGStab:  Solving for e, Initial residual = 0.00832407, Final residual = 0.000147892, No Iterations 1
DICPCG:  Solving for p_rgh, Initial residual = 0.0665783, Final residual = 0.000659301, No Iterations 39
time step continuity errors : sum local = 7.16305, global = -1.34103, cumulative = -65.9178
DILUPBiCGStab:  Solving for epsilon, Initial residual = 0, Final residual = 0, No Iterations 0
DILUPBiCGStab:  Solving for k, Initial residual = 0.00792968, Final residual = 0.000302809, No Iterations 1
ExecutionTime = 3.26 s  ClockTime = 3 s

Time = 56

DILUPBiCGStab:  Solving for Ux, Initial residual = 0.00852841, Final residual = 0.000444001, No Iterations 1
DILUPBiCGStab:  Solving for Uy, Initial residual = 0.014236, Final residual = 0.000781034, No Iterations 1
DILUPBiCGStab:  Solving for Uz, Initial residual = 0.0347491, Final residual = 0.00149381, No Iterations 1
DILUPBiCGStab:  Solving for e, Initial residual = 0.0081342, Final residual = 0.000138529, No Iterations 1
DICPCG:  Solving for p_rgh, Initial residual = 0.0696682, Final residual = 0.000673531, No Iterations 42
time step continuity errors : sum local = 7.33333, global = -1.72344, cumulative = -67.6412
DILUPBiCGStab:  Solving for epsilon, Initial residual = 0, Final residual = 0, No Iterations 0
DILUPBiCGStab:  Solving for k, Initial residual = 0.00797882, Final residual = 0.000316661, No Iterations 1
ExecutionTime = 3.29 s  ClockTime = 3 s

Time = 57

DILUPBiCGStab:  Solving for Ux, Initial residual = 0.00888445, Final residual = 0.000469813, No Iterations 1
DILUPBiCGStab:  Solving for Uy, Initial residual = 0.0142876, Final residual = 0.000779106, No Iterations 1
DILUPBiCGStab:  Solving for Uz, Initial residual = 0.0345072, Final residual = 0.0014798, No Iterations 1
DILUPBiCGStab:  Solving for e, Initial residual = 0.00791183, Final residual = 0.000137325, No Iterations 1
DICPCG:  Solving for p_rgh, Initial residual = 0.0646432, Final residual = 0.000597466, No Iterations 207
time step continuity errors : sum local = 6.47675, global = 0.00355451, cumulative = -67.6377
DILUPBiCGStab:  Solving for epsilon, Initial residual = 0, Final residual = 0, No Iterations 0
DILUPBiCGStab:  Solving for k, Initial residual = 0.00802741, Final residual = 0.000305832, No Iterations 1
ExecutionTime = 3.35 s  ClockTime = 3 s

Time = 58

DILUPBiCGStab:  Solving for Ux, Initial residual = 0.00925032, Final residual = 0.00043772, No Iterations 1
DILUPBiCGStab:  Solving for Uy, Initial residual = 0.0144672, Final residual = 0.00067917, No Iterations 1
DILUPBiCGStab:  Solving for Uz, Initial residual = 0.0368002, Final residual = 0.00157787, No Iterations 1
DILUPBiCGStab:  Solving for e, Initial residual = 0.00783425, Final residual = 0.000127275, No Iterations 1
DICPCG:  Solving for p_rgh, Initial residual = 0.0664083, Final residual = 0.000645921, No Iterations 150
time step continuity errors : sum local = 7.0192, global = 0.948897, cumulative = -66.6888
DILUPBiCGStab:  Solving for epsilon, Initial residual = 0, Final residual = 0, No Iterations 0
DILUPBiCGStab:  Solving for k, Initial residual = 0.00805868, Final residual = 0.000315697, No Iterations 1
ExecutionTime = 3.4 s  ClockTime = 3 s

Time = 59

DILUPBiCGStab:  Solving for Ux, Initial residual = 0.00964716, Final residual = 0.000463317, No Iterations 1
DILUPBiCGStab:  Solving for Uy, Initial residual = 0.0146859, Final residual = 0.000657331, No Iterations 1
DILUPBiCGStab:  Solving for Uz, Initial residual = 0.0359865, Final residual = 0.0014718, No Iterations 1
DILUPBiCGStab:  Solving for e, Initial residual = 0.00773325, Final residual = 0.000124001, No Iterations 1
DICPCG:  Solving for p_rgh, Initial residual = 0.0684871, Final residual = 0.000669693, No Iterations 206
time step continuity errors : sum local = 7.26361, global = 0.00362491, cumulative = -66.6852
DILUPBiCGStab:  Solving for epsilon, Initial residual = 0, Final residual = 0, No Iterations 0
DILUPBiCGStab:  Solving for k, Initial residual = 0.00804039, Final residual = 0.000339358, No Iterations 1
ExecutionTime = 3.46 s  ClockTime = 3 s

Time = 60

DILUPBiCGStab:  Solving for Ux, Initial residual = 0.00990734, Final residual = 0.000490598, No Iterations 1
DILUPBiCGStab:  Solving for Uy, Initial residual = 0.0142977, Final residual = 0.000653491, No Iterations 1
DILUPBiCGStab:  Solving for Uz, Initial residual = 0.0354345, Final residual = 0.0015051, No Iterations 1
DILUPBiCGStab:  Solving for e, Initial residual = 0.00757346, Final residual = 0.000123981, No Iterations 1
DICPCG:  Solving for p_rgh, Initial residual = 0.0687931, Final residual = 0.000541462, No Iterations 208
time step continuity errors : sum local = 5.6867, global = -0.00149936, cumulative = -66.6867
DILUPBiCGStab:  Solving for epsilon, Initial residual = 0, Final residual = 0, No Iterations 0
DILUPBiCGStab:  Solving for k, Initial residual = 0.00807779, Final residual = 0.00033534, No Iterations 1
ExecutionTime = 3.52 s  ClockTime = 4 s

Time = 61

DILUPBiCGStab:  Solving for Ux, Initial residual = 0.0105753, Final residual = 0.000498987, No Iterations 1
DILUPBiCGStab:  Solving for Uy, Initial residual = 0.0145033, Final residual = 0.000593802, No Iterations 1
DILUPBiCGStab:  Solving for Uz, Initial residual = 0.0337201, Final residual = 0.00146703, No Iterations 1
DILUPBiCGStab:  Solving for e, Initial residual = 0.00748595, Final residual = 0.000118597, No Iterations 1
DICPCG:  Solving for p_rgh, Initial residual = 0.0694014, Final residual = 0.00061453, No Iterations 206
time step continuity errors : sum local = 6.2206, global = -0.00264708, cumulative = -66.6893
DILUPBiCGStab:  Solving for epsilon, Initial residual = 0, Final residual = 0, No Iterations 0
DILUPBiCGStab:  Solving for k, Initial residual = 0.00808263, Final residual = 0.000335464, No Iterations 1
ExecutionTime = 3.58 s  ClockTime = 4 s

Time = 62

DILUPBiCGStab:  Solving for Ux, Initial residual = 0.0108055, Final residual = 0.000498875, No Iterations 1
DILUPBiCGStab:  Solving for Uy, Initial residual = 0.0143248, Final residual = 0.00052806, No Iterations 1
DILUPBiCGStab:  Solving for Uz, Initial residual = 0.032655, Final residual = 0.00147692, No Iterations 1
DILUPBiCGStab:  Solving for e, Initial residual = 0.00743339, Final residual = 0.000117815, No Iterations 1
DICPCG:  Solving for p_rgh, Initial residual = 0.070177, Final residual = 0.000699352, No Iterations 160
time step continuity errors : sum local = 6.95655, global = 1.4132, cumulative = -65.2761
DILUPBiCGStab:  Solving for epsilon, Initial residual = 0, Final residual = 0, No Iterations 0
DILUPBiCGStab:  Solving for k, Initial residual = 0.00804322, Final residual = 0.000328417, No Iterations 1
ExecutionTime = 3.63 s  ClockTime = 4 s

Time = 63

DILUPBiCGStab:  Solving for Ux, Initial residual = 0.0107979, Final residual = 0.000483485, No Iterations 1
DILUPBiCGStab:  Solving for Uy, Initial residual = 0.0141309, Final residual = 0.000443192, No Iterations 1
DILUPBiCGStab:  Solving for Uz, Initial residual = 0.0334497, Final residual = 0.00149914, No Iterations 1
DILUPBiCGStab:  Solving for e, Initial residual = 0.00737699, Final residual = 0.000120117, No Iterations 1
DICPCG:  Solving for p_rgh, Initial residual = 0.0725653, Final residual = 0.00071472, No Iterations 205
time step continuity errors : sum local = 7.07658, global = 0.00383762, cumulative = -65.2723
DILUPBiCGStab:  Solving for epsilon, Initial residual = 0, Final residual = 0, No Iterations 0
DILUPBiCGStab:  Solving for k, Initial residual = 0.0079373, Final residual = 0.000326961, No Iterations 1
ExecutionTime = 3.69 s  ClockTime = 4 s

Time = 64

DILUPBiCGStab:  Solving for Ux, Initial residual = 0.01102, Final residual = 0.000490701, No Iterations 1
DILUPBiCGStab:  Solving for Uy, Initial residual = 0.0141229, Final residual = 0.000395367, No Iterations 1
DILUPBiCGStab:  Solving for Uz, Initial residual = 0.0324133, Final residual = 0.00146166, No Iterations 1
DILUPBiCGStab:  Solving for e, Initial residual = 0.00724977, Final residual = 0.000120041, No Iterations 1
DICPCG:  Solving for p_rgh, Initial residual = 0.0711754, Final residual = 0.000705851, No Iterations 205
time step continuity errors : sum local = 6.85969, global = -0.000680858, cumulative = -65.273
DILUPBiCGStab:  Solving for epsilon, Initial residual = 0, Final residual = 0, No Iterations 0
DILUPBiCGStab:  Solving for k, Initial residual = 0.00790846, Final residual = 0.000327638, No Iterations 1
ExecutionTime = 3.75 s  ClockTime = 4 s

Time = 65

DILUPBiCGStab:  Solving for Ux, Initial residual = 0.0113267, Final residual = 0.000511322, No Iterations 1
DILUPBiCGStab:  Solving for Uy, Initial residual = 0.0146808, Final residual = 0.000402217, No Iterations 1
DILUPBiCGStab:  Solving for Uz, Initial residual = 0.0324327, Final residual = 0.00143556, No Iterations 1
DILUPBiCGStab:  Solving for e, Initial residual = 0.00722309, Final residual = 0.000120486, No Iterations 1
DICPCG:  Solving for p_rgh, Initial residual = 0.0701656, Final residual = 0.000654057, No Iterations 198
time step continuity errors : sum local = 6.25807, global = 0.00109831, cumulative = -65.2719
DILUPBiCGStab:  Solving for epsilon, Initial residual = 0, Final residual = 0, No Iterations 0
DILUPBiCGStab:  Solving for k, Initial residual = 0.00784838, Final residual = 0.000320366, No Iterations 1
ExecutionTime = 3.81 s  ClockTime = 4 s

Time = 66

DILUPBiCGStab:  Solving for Ux, Initial residual = 0.0113056, Final residual = 0.000496585, No Iterations 1
DILUPBiCGStab:  Solving for Uy, Initial residual = 0.0153546, Final residual = 0.000410771, No Iterations 1
DILUPBiCGStab:  Solving for Uz, Initial residual = 0.0316634, Final residual = 0.00138605, No Iterations 1
DILUPBiCGStab:  Solving for e, Initial residual = 0.00719681, Final residual = 0.000121541, No Iterations 1
DICPCG:  Solving for p_rgh, Initial residual = 0.0725032, Final residual = 0.000611255, No Iterations 206
time step continuity errors : sum local = 5.79434, global = -0.000714593, cumulative = -65.2726
DILUPBiCGStab:  Solving for epsilon, Initial residual = 0, Final residual = 0, No Iterations 0
DILUPBiCGStab:  Solving for k, Initial residual = 0.00772941, Final residual = 0.000311924, No Iterations 1
ExecutionTime = 3.87 s  ClockTime = 4 s

Time = 67

DILUPBiCGStab:  Solving for Ux, Initial residual = 0.0112569, Final residual = 0.000471994, No Iterations 1
DILUPBiCGStab:  Solving for Uy, Initial residual = 0.0164569, Final residual = 0.000470599, No Iterations 1
DILUPBiCGStab:  Solving for Uz, Initial residual = 0.0311728, Final residual = 0.00135982, No Iterations 1
DILUPBiCGStab:  Solving for e, Initial residual = 0.00717605, Final residual = 0.00012364, No Iterations 1
DICPCG:  Solving for p_rgh, Initial residual = 0.0754018, Final residual = 0.000734618, No Iterations 207
time step continuity errors : sum local = 6.93028, global = -0.000459297, cumulative = -65.273
DILUPBiCGStab:  Solving for epsilon, Initial residual = 0, Final residual = 0, No Iterations 0
DILUPBiCGStab:  Solving for k, Initial residual = 0.00769768, Final residual = 0.000304934, No Iterations 1
ExecutionTime = 3.94 s  ClockTime = 4 s

Time = 68

DILUPBiCGStab:  Solving for Ux, Initial residual = 0.0113277, Final residual = 0.000430573, No Iterations 1
DILUPBiCGStab:  Solving for Uy, Initial residual = 0.0183901, Final residual = 0.000569583, No Iterations 1
DILUPBiCGStab:  Solving for Uz, Initial residual = 0.0301712, Final residual = 0.00134024, No Iterations 1
DILUPBiCGStab:  Solving for e, Initial residual = 0.00717056, Final residual = 0.000118747, No Iterations 1
DICPCG:  Solving for p_rgh, Initial residual = 0.0746392, Final residual = 0.000539511, No Iterations 208
time step continuity errors : sum local = 5.16209, global = 0.00307381, cumulative = -65.27
DILUPBiCGStab:  Solving for epsilon, Initial residual = 0, Final residual = 0, No Iterations 0
DILUPBiCGStab:  Solving for k, Initial residual = 0.00786991, Final residual = 0.00028983, No Iterations 1
ExecutionTime = 4 s  ClockTime = 4 s

Time = 69

DILUPBiCGStab:  Solving for Ux, Initial residual = 0.0120319, Final residual = 0.00037753, No Iterations 1
DILUPBiCGStab:  Solving for Uy, Initial residual = 0.0221532, Final residual = 0.000681056, No Iterations 1
DILUPBiCGStab:  Solving for Uz, Initial residual = 0.0294766, Final residual = 0.00129351, No Iterations 1
DILUPBiCGStab:  Solving for e, Initial residual = 0.00719938, Final residual = 0.000109691, No Iterations 1
DICPCG:  Solving for p_rgh, Initial residual = 0.079572, Final residual = 0.000643551, No Iterations 208
time step continuity errors : sum local = 6.31055, global = 0.00239448, cumulative = -65.2676
DILUPBiCGStab:  Solving for epsilon, Initial residual = 0, Final residual = 0, No Iterations 0
DILUPBiCGStab:  Solving for k, Initial residual = 0.00797599, Final residual = 0.000287393, No Iterations 1
ExecutionTime = 4.06 s  ClockTime = 4 s

Time = 70

DILUPBiCGStab:  Solving for Ux, Initial residual = 0.012371, Final residual = 0.000330316, No Iterations 1
DILUPBiCGStab:  Solving for Uy, Initial residual = 0.0249337, Final residual = 0.000828087, No Iterations 1
DILUPBiCGStab:  Solving for Uz, Initial residual = 0.0282383, Final residual = 0.0012722, No Iterations 1
DILUPBiCGStab:  Solving for e, Initial residual = 0.00734669, Final residual = 0.00010311, No Iterations 1
DICPCG:  Solving for p_rgh, Initial residual = 0.0730717, Final residual = 0.000722372, No Iterations 119
time step continuity errors : sum local = 6.66052, global = -0.75387, cumulative = -66.0214
DILUPBiCGStab:  Solving for epsilon, Initial residual = 0, Final residual = 0, No Iterations 0
DILUPBiCGStab:  Solving for k, Initial residual = 0.00790453, Final residual = 0.000291237, No Iterations 1
ExecutionTime = 4.11 s  ClockTime = 4 s

Time = 71

DILUPBiCGStab:  Solving for Ux, Initial residual = 0.012924, Final residual = 0.000296747, No Iterations 1
DILUPBiCGStab:  Solving for Uy, Initial residual = 0.02614, Final residual = 0.000870948, No Iterations 1
DILUPBiCGStab:  Solving for Uz, Initial residual = 0.0276392, Final residual = 0.00124986, No Iterations 1
DILUPBiCGStab:  Solving for e, Initial residual = 0.0073209, Final residual = 9.99447e-05, No Iterations 1
DICPCG:  Solving for p_rgh, Initial residual = 0.0648643, Final residual = 0.000510148, No Iterations 208
time step continuity errors : sum local = 4.66896, global = -0.00203327, cumulative = -66.0235
DILUPBiCGStab:  Solving for epsilon, Initial residual = 0, Final residual = 0, No Iterations 0
DILUPBiCGStab:  Solving for k, Initial residual = 0.00830291, Final residual = 0.000293073, No Iterations 1
ExecutionTime = 4.17 s  ClockTime = 4 s

Time = 72

DILUPBiCGStab:  Solving for Ux, Initial residual = 0.0145983, Final residual = 0.000374881, No Iterations 1
DILUPBiCGStab:  Solving for Uy, Initial residual = 0.026504, Final residual = 0.000846885, No Iterations 1
DILUPBiCGStab:  Solving for Uz, Initial residual = 0.0269937, Final residual = 0.00120914, No Iterations 1
DILUPBiCGStab:  Solving for e, Initial residual = 0.00750951, Final residual = 9.79147e-05, No Iterations 1
DICPCG:  Solving for p_rgh, Initial residual = 0.0592395, Final residual = 0.000524662, No Iterations 208
time step continuity errors : sum local = 4.8635, global = -0.00419655, cumulative = -66.0277
DILUPBiCGStab:  Solving for epsilon, Initial residual = 0, Final residual = 0, No Iterations 0
DILUPBiCGStab:  Solving for k, Initial residual = 0.0090154, Final residual = 0.00031924, No Iterations 1
ExecutionTime = 4.23 s  ClockTime = 4 s

Time = 73

DILUPBiCGStab:  Solving for Ux, Initial residual = 0.0166329, Final residual = 0.000519826, No Iterations 1
DILUPBiCGStab:  Solving for Uy, Initial residual = 0.0276716, Final residual = 0.000805663, No Iterations 1
DILUPBiCGStab:  Solving for Uz, Initial residual = 0.0263972, Final residual = 0.00118812, No Iterations 1
DILUPBiCGStab:  Solving for e, Initial residual = 0.00787672, Final residual = 9.56946e-05, No Iterations 1
DICPCG:  Solving for p_rgh, Initial residual = 0.0668051, Final residual = 0.00066727, No Iterations 58
time step continuity errors : sum local = 6.26382, global = -0.498723, cumulative = -66.5264
DILUPBiCGStab:  Solving for epsilon, Initial residual = 0, Final residual = 0, No Iterations 0
DILUPBiCGStab:  Solving for k, Initial residual = 0.00978844, Final residual = 0.000378541, No Iterations 1
ExecutionTime = 4.26 s  ClockTime = 4 s

Time = 74

DILUPBiCGStab:  Solving for Ux, Initial residual = 0.0177216, Final residual = 0.000672106, No Iterations 1
DILUPBiCGStab:  Solving for Uy, Initial residual = 0.0268224, Final residual = 0.000777962, No Iterations 1
DILUPBiCGStab:  Solving for Uz, Initial residual = 0.0256828, Final residual = 0.00114114, No Iterations 1
DILUPBiCGStab:  Solving for e, Initial residual = 0.00829172, Final residual = 0.000101629, No Iterations 1
DICPCG:  Solving for p_rgh, Initial residual = 0.0780972, Final residual = 0.000765484, No Iterations 64
time step continuity errors : sum local = 7.22344, global = -0.643312, cumulative = -67.1697
DILUPBiCGStab:  Solving for epsilon, Initial residual = 0, Final residual = 0, No Iterations 0
DILUPBiCGStab:  Solving for k, Initial residual = 0.010413, Final residual = 0.000408493, No Iterations 1
ExecutionTime = 4.3 s  ClockTime = 4 s

Time = 75

DILUPBiCGStab:  Solving for Ux, Initial residual = 0.0179212, Final residual = 0.000799158, No Iterations 1
DILUPBiCGStab:  Solving for Uy, Initial residual = 0.0241771, Final residual = 0.000864738, No Iterations 1
DILUPBiCGStab:  Solving for Uz, Initial residual = 0.0252282, Final residual = 0.00110216, No Iterations 1
DILUPBiCGStab:  Solving for e, Initial residual = 0.00865323, Final residual = 0.000100878, No Iterations 1
DICPCG:  Solving for p_rgh, Initial residual = 0.0861661, Final residual = 0.000704954, No Iterations 208
time step continuity errors : sum local = 6.90454, global = -0.00395012, cumulative = -67.1737
DILUPBiCGStab:  Solving for epsilon, Initial residual = 0, Final residual = 0, No Iterations 0
DILUPBiCGStab:  Solving for k, Initial residual = 0.0109677, Final residual = 0.000432948, No Iterations 1
ExecutionTime = 4.36 s  ClockTime = 4 s

Time = 76

DILUPBiCGStab:  Solving for Ux, Initial residual = 0.0181224, Final residual = 0.000893731, No Iterations 1
DILUPBiCGStab:  Solving for Uy, Initial residual = 0.0212636, Final residual = 0.00110849, No Iterations 1
DILUPBiCGStab:  Solving for Uz, Initial residual = 0.0252353, Final residual = 0.00106065, No Iterations 1
DILUPBiCGStab:  Solving for e, Initial residual = 0.00901636, Final residual = 9.62486e-05, No Iterations 1
DICPCG:  Solving for p_rgh, Initial residual = 0.0782324, Final residual = 0.000669743, No Iterations 207
time step continuity errors : sum local = 7.88348, global = 0.00425159, cumulative = -67.1694
DILUPBiCGStab:  Solving for epsilon, Initial residual = 0, Final residual = 0, No Iterations 0
DILUPBiCGStab:  Solving for k, Initial residual = 0.0113763, Final residual = 0.000463641, No Iterations 1
ExecutionTime = 4.41 s  ClockTime = 4 s

Time = 77

DILUPBiCGStab:  Solving for Ux, Initial residual = 0.0175232, Final residual = 0.00100239, No Iterations 1
DILUPBiCGStab:  Solving for Uy, Initial residual = 0.02012, Final residual = 0.00112525, No Iterations 1
DILUPBiCGStab:  Solving for Uz, Initial residual = 0.0244504, Final residual = 0.00101775, No Iterations 1
DILUPBiCGStab:  Solving for e, Initial residual = 0.00943957, Final residual = 9.81943e-05, No Iterations 1
DICPCG:  Solving for p_rgh, Initial residual = 0.084414, Final residual = 0.000775943, No Iterations 36
time step continuity errors : sum local = 7.75638, global = -0.0558761, cumulative = -67.2253
DILUPBiCGStab:  Solving for epsilon, Initial residual = 0, Final residual = 0, No Iterations 0
DILUPBiCGStab:  Solving for k, Initial residual = 0.0115447, Final residual = 0.000482341, No Iterations 1
ExecutionTime = 4.44 s  ClockTime = 4 s

Time = 78

DILUPBiCGStab:  Solving for Ux, Initial residual = 0.0154136, Final residual = 0.000966084, No Iterations 1
DILUPBiCGStab:  Solving for Uy, Initial residual = 0.01895, Final residual = 0.00111448, No Iterations 1
DILUPBiCGStab:  Solving for Uz, Initial residual = 0.0241854, Final residual = 0.000996824, No Iterations 1
DILUPBiCGStab:  Solving for e, Initial residual = 0.00951494, Final residual = 9.6466e-05, No Iterations 1
DICPCG:  Solving for p_rgh, Initial residual = 0.0783044, Final residual = 0.000718719, No Iterations 207
time step continuity errors : sum local = 6.90946, global = -0.0049558, cumulative = -67.2302
DILUPBiCGStab:  Solving for epsilon, Initial residual = 0, Final residual = 0, No Iterations 0
DILUPBiCGStab:  Solving for k, Initial residual = 0.0112135, Final residual = 0.000504912, No Iterations 1
ExecutionTime = 4.5 s  ClockTime = 4 s

Time = 79

DILUPBiCGStab:  Solving for Ux, Initial residual = 0.0132412, Final residual = 0.000808284, No Iterations 1
DILUPBiCGStab:  Solving for Uy, Initial residual = 0.0188378, Final residual = 0.00104606, No Iterations 1
DILUPBiCGStab:  Solving for Uz, Initial residual = 0.0236855, Final residual = 0.000958688, No Iterations 1
DILUPBiCGStab:  Solving for e, Initial residual = 0.00947311, Final residual = 9.79522e-05, No Iterations 1
DICPCG:  Solving for p_rgh, Initial residual = 0.0751462, Final residual = 0.000740848, No Iterations 208
time step continuity errors : sum local = 6.91765, global = -0.00334898, cumulative = -67.2336
DILUPBiCGStab:  Solving for epsilon, Initial residual = 0, Final residual = 0, No Iterations 0
DILUPBiCGStab:  Solving for k, Initial residual = 0.0110553, Final residual = 0.000512191, No Iterations 1
ExecutionTime = 4.56 s  ClockTime = 5 s

Time = 80

DILUPBiCGStab:  Solving for Ux, Initial residual = 0.0116606, Final residual = 0.000652386, No Iterations 1
DILUPBiCGStab:  Solving for Uy, Initial residual = 0.017932, Final residual = 0.000936726, No Iterations 1
DILUPBiCGStab:  Solving for Uz, Initial residual = 0.0233008, Final residual = 0.000919931, No Iterations 1
DILUPBiCGStab:  Solving for e, Initial residual = 0.00947266, Final residual = 0.000100734, No Iterations 1
DICPCG:  Solving for p_rgh, Initial residual = 0.0766187, Final residual = 0.000708525, No Iterations 38
time step continuity errors : sum local = 6.47743, global = -0.645074, cumulative = -67.8787
DILUPBiCGStab:  Solving for epsilon, Initial residual = 0, Final residual = 0, No Iterations 0
DILUPBiCGStab:  Solving for k, Initial residual = 0.0108405, Final residual = 0.00053621, No Iterations 1
ExecutionTime = 4.59 s  ClockTime = 5 s

Time = 81

DILUPBiCGStab:  Solving for Ux, Initial residual = 0.0107757, Final residual = 0.000597086, No Iterations 1
DILUPBiCGStab:  Solving for Uy, Initial residual = 0.0165562, Final residual = 0.000895437, No Iterations 1
DILUPBiCGStab:  Solving for Uz, Initial residual = 0.0231742, Final residual = 0.000893426, No Iterations 1
DILUPBiCGStab:  Solving for e, Initial residual = 0.00951144, Final residual = 0.000112554, No Iterations 1
DICPCG:  Solving for p_rgh, Initial residual = 0.0741223, Final residual = 0.000533789, No Iterations 209
time step continuity errors : sum local = 4.8777, global = -0.00271018, cumulative = -67.8814
DILUPBiCGStab:  Solving for epsilon, Initial residual = 0, Final residual = 0, No Iterations 0
DILUPBiCGStab:  Solving for k, Initial residual = 0.0107119, Final residual = 0.00054395, No Iterations 1
ExecutionTime = 4.65 s  ClockTime = 5 s

Time = 82

DILUPBiCGStab:  Solving for Ux, Initial residual = 0.0104045, Final residual = 0.000587558, No Iterations 1
DILUPBiCGStab:  Solving for Uy, Initial residual = 0.0169549, Final residual = 0.000935381, No Iterations 1
DILUPBiCGStab:  Solving for Uz, Initial residual = 0.0231354, Final residual = 0.000864581, No Iterations 1
DILUPBiCGStab:  Solving for e, Initial residual = 0.00955813, Final residual = 0.000130217, No Iterations 1
DICPCG:  Solving for p_rgh, Initial residual = 0.072148, Final residual = 0.00071289, No Iterations 119
time step continuity errors : sum local = 6.54225, global = -1.04718, cumulative = -68.9285
DILUPBiCGStab:  Solving for epsilon, Initial residual = 0, Final residual = 0, No Iterations 0
DILUPBiCGStab:  Solving for k, Initial residual = 0.0106813, Final residual = 0.00054145, No Iterations 1
ExecutionTime = 4.7 s  ClockTime = 5 s

Time = 83

DILUPBiCGStab:  Solving for Ux, Initial residual = 0.0101612, Final residual = 0.000520777, No Iterations 1
DILUPBiCGStab:  Solving for Uy, Initial residual = 0.0170771, Final residual = 0.0010024, No Iterations 1
DILUPBiCGStab:  Solving for Uz, Initial residual = 0.0230337, Final residual = 0.000869625, No Iterations 1
DILUPBiCGStab:  Solving for e, Initial residual = 0.00962148, Final residual = 0.000151242, No Iterations 1
DICPCG:  Solving for p_rgh, Initial residual = 0.0712784, Final residual = 0.000698473, No Iterations 121
time step continuity errors : sum local = 6.43047, global = -0.525593, cumulative = -69.4541
DILUPBiCGStab:  Solving for epsilon, Initial residual = 0, Final residual = 0, No Iterations 0
DILUPBiCGStab:  Solving for k, Initial residual = 0.0107875, Final residual = 0.000525114, No Iterations 1
ExecutionTime = 4.74 s  ClockTime = 5 s

Time = 84

DILUPBiCGStab:  Solving for Ux, Initial residual = 0.00979018, Final residual = 0.000424093, No Iterations 1
DILUPBiCGStab:  Solving for Uy, Initial residual = 0.0169057, Final residual = 0.00107378, No Iterations 1
DILUPBiCGStab:  Solving for Uz, Initial residual = 0.0221643, Final residual = 0.000814736, No Iterations 1
DILUPBiCGStab:  Solving for e, Initial residual = 0.00973194, Final residual = 0.000166297, No Iterations 1
DICPCG:  Solving for p_rgh, Initial residual = 0.0669518, Final residual = 0.00065416, No Iterations 137
time step continuity errors : sum local = 5.98836, global = -0.0927784, cumulative = -69.5469
DILUPBiCGStab:  Solving for epsilon, Initial residual = 0, Final residual = 0, No Iterations 0
DILUPBiCGStab:  Solving for k, Initial residual = 0.0108891, Final residual = 0.00052677, No Iterations 1
ExecutionTime = 4.79 s  ClockTime = 5 s

Time = 85

DILUPBiCGStab:  Solving for Ux, Initial residual = 0.00953625, Final residual = 0.000361023, No Iterations 1
DILUPBiCGStab:  Solving for Uy, Initial residual = 0.0171547, Final residual = 0.00125041, No Iterations 1
DILUPBiCGStab:  Solving for Uz, Initial residual = 0.021918, Final residual = 0.000824025, No Iterations 1
DILUPBiCGStab:  Solving for e, Initial residual = 0.0098604, Final residual = 0.000176441, No Iterations 1
DICPCG:  Solving for p_rgh, Initial residual = 0.0647419, Final residual = 0.000586475, No Iterations 111
time step continuity errors : sum local = 5.32592, global = 0.500281, cumulative = -69.0466
DILUPBiCGStab:  Solving for epsilon, Initial residual = 0, Final residual = 0, No Iterations 0
DILUPBiCGStab:  Solving for k, Initial residual = 0.0110484, Final residual = 0.000535533, No Iterations 1
ExecutionTime = 4.83 s  ClockTime = 5 s

Time = 86

DILUPBiCGStab:  Solving for Ux, Initial residual = 0.00952144, Final residual = 0.000347606, No Iterations 1
DILUPBiCGStab:  Solving for Uy, Initial residual = 0.0174497, Final residual = 0.00139285, No Iterations 1
DILUPBiCGStab:  Solving for Uz, Initial residual = 0.0218506, Final residual = 0.000814377, No Iterations 1
DILUPBiCGStab:  Solving for e, Initial residual = 0.0100023, Final residual = 0.000185133, No Iterations 1
DICPCG:  Solving for p_rgh, Initial residual = 0.0614501, Final residual = 0.000609559, No Iterations 54
time step continuity errors : sum local = 5.50735, global = 1.41931, cumulative = -67.6273
DILUPBiCGStab:  Solving for epsilon, Initial residual = 0, Final residual = 0, No Iterations 0
DILUPBiCGStab:  Solving for k, Initial residual = 0.0112674, Final residual = 0.000549031, No Iterations 1
ExecutionTime = 4.87 s  ClockTime = 5 s

Time = 87

DILUPBiCGStab:  Solving for Ux, Initial residual = 0.00960766, Final residual = 0.000353771, No Iterations 1
DILUPBiCGStab:  Solving for Uy, Initial residual = 0.0176069, Final residual = 0.00137482, No Iterations 1
DILUPBiCGStab:  Solving for Uz, Initial residual = 0.0215092, Final residual = 0.000814451, No Iterations 1
DILUPBiCGStab:  Solving for e, Initial residual = 0.0101982, Final residual = 0.000191609, No Iterations 1
DICPCG:  Solving for p_rgh, Initial residual = 0.0629881, Final residual = 0.000501616, No Iterations 210
time step continuity errors : sum local = 4.52521, global = -0.00322185, cumulative = -67.6305
DILUPBiCGStab:  Solving for epsilon, Initial residual = 0, Final residual = 0, No Iterations 0
DILUPBiCGStab:  Solving for k, Initial residual = 0.0113977, Final residual = 0.000558737, No Iterations 1
ExecutionTime = 4.93 s  ClockTime = 5 s

Time = 88

DILUPBiCGStab:  Solving for Ux, Initial residual = 0.00982531, Final residual = 0.000380682, No Iterations 1
DILUPBiCGStab:  Solving for Uy, Initial residual = 0.0175964, Final residual = 0.00126462, No Iterations 1
DILUPBiCGStab:  Solving for Uz, Initial residual = 0.0213878, Final residual = 0.000845427, No Iterations 1
DILUPBiCGStab:  Solving for e, Initial residual = 0.0104332, Final residual = 0.000190927, No Iterations 1
DICPCG:  Solving for p_rgh, Initial residual = 0.065635, Final residual = 0.000627916, No Iterations 59
time step continuity errors : sum local = 5.628, global = 1.46997, cumulative = -66.1606
DILUPBiCGStab:  Solving for epsilon, Initial residual = 0, Final residual = 0, No Iterations 0
DILUPBiCGStab:  Solving for k, Initial residual = 0.0113666, Final residual = 0.000557317, No Iterations 1
ExecutionTime = 4.96 s  ClockTime = 5 s

Time = 89

DILUPBiCGStab:  Solving for Ux, Initial residual = 0.00999273, Final residual = 0.000398792, No Iterations 1
[...]
DICPCG:  Solving for p_rgh, Initial residual = 0.0971076, Final residual = 0.000772095, No Iterations 206
time step continuity errors : sum local = 18.5307, global = 0.000599446, cumulative = 43.5311
DILUPBiCGStab:  Solving for epsilon, Initial residual = 0, Final residual = 0, No Iterations 0
DILUPBiCGStab:  Solving for k, Initial residual = 0.0140491, Final residual = 0.000178094, No Iterations 1
ExecutionTime = 46.7 s  ClockTime = 47 s

Time = 979

DILUPBiCGStab:  Solving for Ux, Initial residual = 0.0133171, Final residual = 0.000451763, No Iterations 1
DILUPBiCGStab:  Solving for Uy, Initial residual = 0.0333852, Final residual = 0.00065821, No Iterations 1
DILUPBiCGStab:  Solving for Uz, Initial residual = 0.0104187, Final residual = 0.000665752, No Iterations 1
DILUPBiCGStab:  Solving for e, Initial residual = 0.000991748, Final residual = 8.75132e-06, No Iterations 1
DICPCG:  Solving for p_rgh, Initial residual = 0.0894715, Final residual = 0.000669539, No Iterations 207
time step continuity errors : sum local = 13.6815, global = -0.0083922, cumulative = 43.5227
DILUPBiCGStab:  Solving for epsilon, Initial residual = 0, Final residual = 0, No Iterations 0
DILUPBiCGStab:  Solving for k, Initial residual = 0.0141039, Final residual = 0.000173772, No Iterations 1
ExecutionTime = 46.76 s  ClockTime = 47 s

Time = 980

DILUPBiCGStab:  Solving for Ux, Initial residual = 0.010413, Final residual = 0.000330081, No Iterations 1
DILUPBiCGStab:  Solving for Uy, Initial residual = 0.0301525, Final residual = 0.000632246, No Iterations 1
DILUPBiCGStab:  Solving for Uz, Initial residual = 0.0111337, Final residual = 0.000665224, No Iterations 1
DILUPBiCGStab:  Solving for e, Initial residual = 0.000932344, Final residual = 8.21816e-06, No Iterations 1
DICPCG:  Solving for p_rgh, Initial residual = 0.0726233, Final residual = 0.000569987, No Iterations 206
time step continuity errors : sum local = 13.0612, global = -0.000593032, cumulative = 43.5221
DILUPBiCGStab:  Solving for epsilon, Initial residual = 0, Final residual = 0, No Iterations 0
DILUPBiCGStab:  Solving for k, Initial residual = 0.0140751, Final residual = 0.00018, No Iterations 1
ExecutionTime = 46.82 s  ClockTime = 47 s

Time = 981

DILUPBiCGStab:  Solving for Ux, Initial residual = 0.00987394, Final residual = 0.000300836, No Iterations 1
DILUPBiCGStab:  Solving for Uy, Initial residual = 0.0188011, Final residual = 0.000512122, No Iterations 1
DILUPBiCGStab:  Solving for Uz, Initial residual = 0.0117491, Final residual = 0.000669088, No Iterations 1
DILUPBiCGStab:  Solving for e, Initial residual = 0.00100232, Final residual = 9.12663e-06, No Iterations 1
DICPCG:  Solving for p_rgh, Initial residual = 0.0597384, Final residual = 0.000583784, No Iterations 105
time step continuity errors : sum local = 15.0298, global = -2.00318, cumulative = 41.5189
DILUPBiCGStab:  Solving for epsilon, Initial residual = 0, Final residual = 0, No Iterations 0
DILUPBiCGStab:  Solving for k, Initial residual = 0.0138341, Final residual = 0.000181707, No Iterations 1
ExecutionTime = 46.86 s  ClockTime = 48 s

Time = 982

DILUPBiCGStab:  Solving for Ux, Initial residual = 0.00992148, Final residual = 0.00030416, No Iterations 1
DILUPBiCGStab:  Solving for Uy, Initial residual = 0.0171141, Final residual = 0.000564999, No Iterations 1
DILUPBiCGStab:  Solving for Uz, Initial residual = 0.0118404, Final residual = 0.0006699, No Iterations 1
DILUPBiCGStab:  Solving for e, Initial residual = 0.000942996, Final residual = 9.53776e-06, No Iterations 1
DICPCG:  Solving for p_rgh, Initial residual = 0.060522, Final residual = 0.000491414, No Iterations 207
time step continuity errors : sum local = 12.7831, global = 0.00141666, cumulative = 41.5203
DILUPBiCGStab:  Solving for epsilon, Initial residual = 0, Final residual = 0, No Iterations 0
DILUPBiCGStab:  Solving for k, Initial residual = 0.0133679, Final residual = 0.000174027, No Iterations 1
ExecutionTime = 46.92 s  ClockTime = 48 s

Time = 983

DILUPBiCGStab:  Solving for Ux, Initial residual = 0.00873448, Final residual = 0.000268045, No Iterations 1
DILUPBiCGStab:  Solving for Uy, Initial residual = 0.0195219, Final residual = 0.000756847, No Iterations 1
DILUPBiCGStab:  Solving for Uz, Initial residual = 0.0119778, Final residual = 0.000581698, No Iterations 1
DILUPBiCGStab:  Solving for e, Initial residual = 0.000887343, Final residual = 9.93126e-06, No Iterations 1
DICPCG:  Solving for p_rgh, Initial residual = 0.0622315, Final residual = 0.000510126, No Iterations 207
time step continuity errors : sum local = 13.2013, global = -0.00829527, cumulative = 41.512
DILUPBiCGStab:  Solving for epsilon, Initial residual = 0, Final residual = 0, No Iterations 0
DILUPBiCGStab:  Solving for k, Initial residual = 0.0128253, Final residual = 0.000172334, No Iterations 1
ExecutionTime = 46.99 s  ClockTime = 48 s

Time = 984

DILUPBiCGStab:  Solving for Ux, Initial residual = 0.0083088, Final residual = 0.000256566, No Iterations 1
DILUPBiCGStab:  Solving for Uy, Initial residual = 0.0251096, Final residual = 0.000935707, No Iterations 1
DILUPBiCGStab:  Solving for Uz, Initial residual = 0.0115249, Final residual = 0.00051021, No Iterations 1
DILUPBiCGStab:  Solving for e, Initial residual = 0.000865966, Final residual = 1.04391e-05, No Iterations 1
DICPCG:  Solving for p_rgh, Initial residual = 0.0679265, Final residual = 0.000659817, No Iterations 86
time step continuity errors : sum local = 16.4365, global = -4.51401, cumulative = 36.998
DILUPBiCGStab:  Solving for epsilon, Initial residual = 0, Final residual = 0, No Iterations 0
DILUPBiCGStab:  Solving for k, Initial residual = 0.012407, Final residual = 0.000174914, No Iterations 1
ExecutionTime = 47.03 s  ClockTime = 48 s

Time = 985

DILUPBiCGStab:  Solving for Ux, Initial residual = 0.00854074, Final residual = 0.000289718, No Iterations 1
DILUPBiCGStab:  Solving for Uy, Initial residual = 0.026872, Final residual = 0.000882723, No Iterations 1
DILUPBiCGStab:  Solving for Uz, Initial residual = 0.0121788, Final residual = 0.000612006, No Iterations 1
DILUPBiCGStab:  Solving for e, Initial residual = 0.000853683, Final residual = 1.1156e-05, No Iterations 1
DICPCG:  Solving for p_rgh, Initial residual = 0.0727748, Final residual = 0.00055016, No Iterations 209
time step continuity errors : sum local = 13.4361, global = 0.00173208, cumulative = 36.9998
DILUPBiCGStab:  Solving for epsilon, Initial residual = 0, Final residual = 0, No Iterations 0
DILUPBiCGStab:  Solving for k, Initial residual = 0.0120169, Final residual = 0.000172713, No Iterations 1
ExecutionTime = 47.09 s  ClockTime = 48 s

Time = 986

DILUPBiCGStab:  Solving for Ux, Initial residual = 0.00942133, Final residual = 0.000389725, No Iterations 1
DILUPBiCGStab:  Solving for Uy, Initial residual = 0.0233821, Final residual = 0.000666122, No Iterations 1
DILUPBiCGStab:  Solving for Uz, Initial residual = 0.0116765, Final residual = 0.000440496, No Iterations 1
DILUPBiCGStab:  Solving for e, Initial residual = 0.000872306, Final residual = 1.17949e-05, No Iterations 1
DICPCG:  Solving for p_rgh, Initial residual = 0.0716784, Final residual = 0.000706981, No Iterations 88
time step continuity errors : sum local = 17.7656, global = -6.70946, cumulative = 30.2903
DILUPBiCGStab:  Solving for epsilon, Initial residual = 0, Final residual = 0, No Iterations 0
DILUPBiCGStab:  Solving for k, Initial residual = 0.0117323, Final residual = 0.000195998, No Iterations 1
ExecutionTime = 47.13 s  ClockTime = 48 s

Time = 987

DILUPBiCGStab:  Solving for Ux, Initial residual = 0.00995189, Final residual = 0.000459567, No Iterations 1
DILUPBiCGStab:  Solving for Uy, Initial residual = 0.022039, Final residual = 0.000600824, No Iterations 1
DILUPBiCGStab:  Solving for Uz, Initial residual = 0.0110476, Final residual = 0.000401595, No Iterations 1
DILUPBiCGStab:  Solving for e, Initial residual = 0.000868876, Final residual = 1.31962e-05, No Iterations 1
DICPCG:  Solving for p_rgh, Initial residual = 0.0691927, Final residual = 0.000632287, No Iterations 79
time step continuity errors : sum local = 15.8222, global = -3.78403, cumulative = 26.5063
DILUPBiCGStab:  Solving for epsilon, Initial residual = 0, Final residual = 0, No Iterations 0
DILUPBiCGStab:  Solving for k, Initial residual = 0.0115208, Final residual = 0.00021309, No Iterations 1
ExecutionTime = 47.16 s  ClockTime = 48 s

Time = 988

DILUPBiCGStab:  Solving for Ux, Initial residual = 0.0100789, Final residual = 0.00047694, No Iterations 1
DILUPBiCGStab:  Solving for Uy, Initial residual = 0.0221357, Final residual = 0.000701175, No Iterations 1
DILUPBiCGStab:  Solving for Uz, Initial residual = 0.0107233, Final residual = 0.000373956, No Iterations 1
DILUPBiCGStab:  Solving for e, Initial residual = 0.000849941, Final residual = 1.38655e-05, No Iterations 1
DICPCG:  Solving for p_rgh, Initial residual = 0.0704717, Final residual = 0.000629537, No Iterations 87
time step continuity errors : sum local = 15.4086, global = -1.55888, cumulative = 24.9474
DILUPBiCGStab:  Solving for epsilon, Initial residual = 0, Final residual = 0, No Iterations 0
DILUPBiCGStab:  Solving for k, Initial residual = 0.0115027, Final residual = 0.000233367, No Iterations 1
ExecutionTime = 47.2 s  ClockTime = 48 s

Time = 989

DILUPBiCGStab:  Solving for Ux, Initial residual = 0.00981006, Final residual = 0.000464867, No Iterations 1
DILUPBiCGStab:  Solving for Uy, Initial residual = 0.022417, Final residual = 0.00089678, No Iterations 1
DILUPBiCGStab:  Solving for Uz, Initial residual = 0.00962762, Final residual = 0.000476745, No Iterations 1
DILUPBiCGStab:  Solving for e, Initial residual = 0.00083718, Final residual = 1.4687e-05, No Iterations 1
DICPCG:  Solving for p_rgh, Initial residual = 0.0720554, Final residual = 0.000716518, No Iterations 34
time step continuity errors : sum local = 17.267, global = -0.555968, cumulative = 24.3914
DILUPBiCGStab:  Solving for epsilon, Initial residual = 0, Final residual = 0, No Iterations 0
DILUPBiCGStab:  Solving for k, Initial residual = 0.0117002, Final residual = 0.000251372, No Iterations 1
ExecutionTime = 47.23 s  ClockTime = 48 s

Time = 990

DILUPBiCGStab:  Solving for Ux, Initial residual = 0.00952593, Final residual = 0.000443005, No Iterations 1
DILUPBiCGStab:  Solving for Uy, Initial residual = 0.0223183, Final residual = 0.000956154, No Iterations 1
DILUPBiCGStab:  Solving for Uz, Initial residual = 0.00875932, Final residual = 0.000485176, No Iterations 1
DILUPBiCGStab:  Solving for e, Initial residual = 0.000826922, Final residual = 1.56607e-05, No Iterations 1
DICPCG:  Solving for p_rgh, Initial residual = 0.0758672, Final residual = 0.000728455, No Iterations 89
time step continuity errors : sum local = 17.6395, global = -2.37414, cumulative = 22.0173
DILUPBiCGStab:  Solving for epsilon, Initial residual = 0, Final residual = 0, No Iterations 0
DILUPBiCGStab:  Solving for k, Initial residual = 0.0120384, Final residual = 0.000262176, No Iterations 1
ExecutionTime = 47.27 s  ClockTime = 48 s

Time = 991

DILUPBiCGStab:  Solving for Ux, Initial residual = 0.00925755, Final residual = 0.0004174, No Iterations 1
DILUPBiCGStab:  Solving for Uy, Initial residual = 0.0213715, Final residual = 0.000836508, No Iterations 1
DILUPBiCGStab:  Solving for Uz, Initial residual = 0.00898305, Final residual = 0.000501097, No Iterations 1
DILUPBiCGStab:  Solving for e, Initial residual = 0.000819566, Final residual = 1.65971e-05, No Iterations 1
DICPCG:  Solving for p_rgh, Initial residual = 0.0770161, Final residual = 0.000697272, No Iterations 88
time step continuity errors : sum local = 18.4495, global = -5.6993, cumulative = 16.318
DILUPBiCGStab:  Solving for epsilon, Initial residual = 0, Final residual = 0, No Iterations 0
DILUPBiCGStab:  Solving for k, Initial residual = 0.0122778, Final residual = 0.000265816, No Iterations 1
ExecutionTime = 47.31 s  ClockTime = 48 s

Time = 992

DILUPBiCGStab:  Solving for Ux, Initial residual = 0.00886389, Final residual = 0.000392281, No Iterations 1
DILUPBiCGStab:  Solving for Uy, Initial residual = 0.0219564, Final residual = 0.000868819, No Iterations 1
DILUPBiCGStab:  Solving for Uz, Initial residual = 0.0105138, Final residual = 0.000403946, No Iterations 1
DILUPBiCGStab:  Solving for e, Initial residual = 0.000811815, Final residual = 1.75809e-05, No Iterations 1
DICPCG:  Solving for p_rgh, Initial residual = 0.0771334, Final residual = 0.000752745, No Iterations 86
time step continuity errors : sum local = 21.4095, global = -6.63341, cumulative = 9.68458
DILUPBiCGStab:  Solving for epsilon, Initial residual = 0, Final residual = 0, No Iterations 0
DILUPBiCGStab:  Solving for k, Initial residual = 0.0121816, Final residual = 0.000265172, No Iterations 1
ExecutionTime = 47.35 s  ClockTime = 48 s

Time = 993

DILUPBiCGStab:  Solving for Ux, Initial residual = 0.00826475, Final residual = 0.000354343, No Iterations 1
DILUPBiCGStab:  Solving for Uy, Initial residual = 0.0216752, Final residual = 0.000980482, No Iterations 1
DILUPBiCGStab:  Solving for Uz, Initial residual = 0.0103296, Final residual = 0.000371473, No Iterations 1
DILUPBiCGStab:  Solving for e, Initial residual = 0.000776648, Final residual = 1.79409e-05, No Iterations 1
DICPCG:  Solving for p_rgh, Initial residual = 0.0914939, Final residual = 0.000914614, No Iterations 87
time step continuity errors : sum local = 22.495, global = -8.32264, cumulative = 1.36193
DILUPBiCGStab:  Solving for epsilon, Initial residual = 0, Final residual = 0, No Iterations 0
DILUPBiCGStab:  Solving for k, Initial residual = 0.0118402, Final residual = 0.000266982, No Iterations 1
ExecutionTime = 47.39 s  ClockTime = 48 s

Time = 994

DILUPBiCGStab:  Solving for Ux, Initial residual = 0.00760115, Final residual = 0.000325436, No Iterations 1
DILUPBiCGStab:  Solving for Uy, Initial residual = 0.0213345, Final residual = 0.00113211, No Iterations 1
DILUPBiCGStab:  Solving for Uz, Initial residual = 0.0113674, Final residual = 0.000443139, No Iterations 1
DILUPBiCGStab:  Solving for e, Initial residual = 0.000769587, Final residual = 1.80611e-05, No Iterations 1
DICPCG:  Solving for p_rgh, Initial residual = 0.0912171, Final residual = 0.000869038, No Iterations 89
time step continuity errors : sum local = 20.8099, global = -9.14897, cumulative = -7.78703
DILUPBiCGStab:  Solving for epsilon, Initial residual = 0, Final residual = 0, No Iterations 0
DILUPBiCGStab:  Solving for k, Initial residual = 0.011405, Final residual = 0.000266008, No Iterations 1
ExecutionTime = 47.43 s  ClockTime = 48 s

Time = 995

DILUPBiCGStab:  Solving for Ux, Initial residual = 0.00722237, Final residual = 0.000320261, No Iterations 1
DILUPBiCGStab:  Solving for Uy, Initial residual = 0.0216377, Final residual = 0.00133316, No Iterations 1
DILUPBiCGStab:  Solving for Uz, Initial residual = 0.0155677, Final residual = 0.000605256, No Iterations 1
DILUPBiCGStab:  Solving for e, Initial residual = 0.000773671, Final residual = 1.75275e-05, No Iterations 1
DICPCG:  Solving for p_rgh, Initial residual = 0.0885881, Final residual = 0.000857616, No Iterations 104
time step continuity errors : sum local = 20.1628, global = -8.73301, cumulative = -16.52
DILUPBiCGStab:  Solving for epsilon, Initial residual = 0, Final residual = 0, No Iterations 0
DILUPBiCGStab:  Solving for k, Initial residual = 0.0108775, Final residual = 0.000268328, No Iterations 1
ExecutionTime = 47.47 s  ClockTime = 48 s

Time = 996

DILUPBiCGStab:  Solving for Ux, Initial residual = 0.00693893, Final residual = 0.000327406, No Iterations 1
DILUPBiCGStab:  Solving for Uy, Initial residual = 0.0221505, Final residual = 0.00146754, No Iterations 1
DILUPBiCGStab:  Solving for Uz, Initial residual = 0.00946794, Final residual = 0.000611195, No Iterations 1
DILUPBiCGStab:  Solving for e, Initial residual = 0.000784551, Final residual = 1.66692e-05, No Iterations 1
DICPCG:  Solving for p_rgh, Initial residual = 0.0841661, Final residual = 0.000836264, No Iterations 29
time step continuity errors : sum local = 19.4882, global = -6.74466, cumulative = -23.2647
DILUPBiCGStab:  Solving for epsilon, Initial residual = 0, Final residual = 0, No Iterations 0
DILUPBiCGStab:  Solving for k, Initial residual = 0.0103948, Final residual = 0.000274772, No Iterations 1
ExecutionTime = 47.5 s  ClockTime = 48 s

Time = 997

DILUPBiCGStab:  Solving for Ux, Initial residual = 0.00685793, Final residual = 0.000339766, No Iterations 1
DILUPBiCGStab:  Solving for Uy, Initial residual = 0.0220416, Final residual = 0.00148338, No Iterations 1
DILUPBiCGStab:  Solving for Uz, Initial residual = 0.00629012, Final residual = 0.000424527, No Iterations 1
DILUPBiCGStab:  Solving for e, Initial residual = 0.00079218, Final residual = 1.57463e-05, No Iterations 1
DICPCG:  Solving for p_rgh, Initial residual = 0.0850475, Final residual = 0.00083536, No Iterations 65
time step continuity errors : sum local = 19.4875, global = -3.51262, cumulative = -26.7773
DILUPBiCGStab:  Solving for epsilon, Initial residual = 0, Final residual = 0, No Iterations 0
DILUPBiCGStab:  Solving for k, Initial residual = 0.00993033, Final residual = 0.000282731, No Iterations 1
ExecutionTime = 47.53 s  ClockTime = 48 s

Time = 998

DILUPBiCGStab:  Solving for Ux, Initial residual = 0.00678123, Final residual = 0.000350084, No Iterations 1
DILUPBiCGStab:  Solving for Uy, Initial residual = 0.0211815, Final residual = 0.00140941, No Iterations 1
DILUPBiCGStab:  Solving for Uz, Initial residual = 0.00548011, Final residual = 0.000441892, No Iterations 1
DILUPBiCGStab:  Solving for e, Initial residual = 0.000794714, Final residual = 1.46045e-05, No Iterations 1
DICPCG:  Solving for p_rgh, Initial residual = 0.0826261, Final residual = 0.000710586, No Iterations 86
time step continuity errors : sum local = 16.6181, global = 1.9586, cumulative = -24.8187
DILUPBiCGStab:  Solving for epsilon, Initial residual = 0, Final residual = 0, No Iterations 0
DILUPBiCGStab:  Solving for k, Initial residual = 0.00954892, Final residual = 0.000293785, No Iterations 1
ExecutionTime = 47.57 s  ClockTime = 48 s

Time = 999

DILUPBiCGStab:  Solving for Ux, Initial residual = 0.00679686, Final residual = 0.000360055, No Iterations 1
DILUPBiCGStab:  Solving for Uy, Initial residual = 0.0204246, Final residual = 0.0013302, No Iterations 1
DILUPBiCGStab:  Solving for Uz, Initial residual = 0.00657244, Final residual = 0.000508878, No Iterations 1
DILUPBiCGStab:  Solving for e, Initial residual = 0.000798278, Final residual = 1.32911e-05, No Iterations 1
DICPCG:  Solving for p_rgh, Initial residual = 0.0791455, Final residual = 0.000733275, No Iterations 215
time step continuity errors : sum local = 17.3885, global = 0.0024951, cumulative = -24.8162
DILUPBiCGStab:  Solving for epsilon, Initial residual = 0, Final residual = 0, No Iterations 0
DILUPBiCGStab:  Solving for k, Initial residual = 0.00933075, Final residual = 0.000298137, No Iterations 1
ExecutionTime = 47.63 s  ClockTime = 48 s

Time = 1000

DILUPBiCGStab:  Solving for Ux, Initial residual = 0.00687566, Final residual = 0.000348553, No Iterations 1
DILUPBiCGStab:  Solving for Uy, Initial residual = 0.0199023, Final residual = 0.00118814, No Iterations 1
DILUPBiCGStab:  Solving for Uz, Initial residual = 0.00820303, Final residual = 0.000622219, No Iterations 1
DILUPBiCGStab:  Solving for e, Initial residual = 0.000811994, Final residual = 1.25522e-05, No Iterations 1
DICPCG:  Solving for p_rgh, Initial residual = 0.0741375, Final residual = 0.000714501, No Iterations 209
time step continuity errors : sum local = 17.1398, global = -0.00274322, cumulative = -24.819
DILUPBiCGStab:  Solving for epsilon, Initial residual = 0, Final residual = 0, No Iterations 0
DILUPBiCGStab:  Solving for k, Initial residual = 0.00923143, Final residual = 0.000300522, No Iterations 1
ExecutionTime = 47.82 s  ClockTime = 49 s

End

